
simpleFoam has been superseded and replaced by the more general
incompressibleFluid solver module executed by the foamRun application:

    foamRun -solver incompressibleFluid


simpleFoam has been superseded and replaced by the more general
incompressibleFluid solver module executed by the foamRun application:

    foamRun -solver incompressibleFluid


simpleFoam has been superseded and replaced by the more general
incompressibleFluid solver module executed by the foamRun application:

    foamRun -solver incompressibleFluid


simpleFoam has been superseded and replaced by the more general
incompressibleFluid solver module executed by the foamRun application:

    foamRun -solver incompressibleFluid


simpleFoam has been superseded and replaced by the more general
incompressibleFluid solver module executed by the foamRun application:

    foamRun -solver incompressibleFluid


simpleFoam has been superseded and replaced by the more general
incompressibleFluid solver module executed by the foamRun application:

    foamRun -solver incompressibleFluid


simpleFoam has been superseded and replaced by the more general
incompressibleFluid solver module executed by the foamRun application:

    foamRun -solver incompressibleFluid


simpleFoam has been superseded and replaced by the more general
incompressibleFluid solver module executed by the foamRun application:

    foamRun -solver incompressibleFluid

/*---------------------------------------------------------------------------*\
  =========                 |
  \\      /  F ield         | OpenFOAM: The Open Source CFD Toolbox
   \\    /   O peration     | Website:  https://openfoam.org
    \\  /    A nd           | Version:  13
     \\/     M anipulation  |
\*---------------------------------------------------------------------------*/
Build  : 13-58ed5c2046ef
Exec   : foamRun -solver incompressibleFluid -parallel
Date   : Mar 18 2026
Time   : 23:12:37
Host   : "ABS-Gaming"
PID    : 7150
I/O    : uncollated
Case   : /home/linus/OpenFOAM/linus-13/run/bajaCFD
nProcs : 8
Slaves : 
7
(
"ABS-Gaming.7151"
"ABS-Gaming.7154"
"ABS-Gaming.7156"
"ABS-Gaming.7158"
"ABS-Gaming.7160"
"ABS-Gaming.7162"
"ABS-Gaming.7164"
)

Pstream initialised with:
    floatTransfer      : false
    nProcsSimpleSum    : 0
    commsType          : nonBlocking
    polling iterations : 0
sigFpe : Enabling floating point exception trapping (FOAM_SIGFPE).
fileModificationChecking : Monitoring run-time modified files using timeStampMaster (fileModificationSkew 10)
allowSystemOperations : Allowing user-supplied system call operations

// * * * * * * * * * * * * * * * * * * * * * * * * * * * * * * * * * * * * * //
Create time

Create mesh for time = 0

Selecting solver incompressibleFluid
Selecting viscosity model constant
Selecting turbulence model type RAS
    Selecting RAS turbulence model kOmegaSST
No MRF models present

Selecting patchDistMethod meshWave

SIMPLE: No convergence criteria found


SIMPLE: Operating solver in steady-state mode with 1 outer corrector
SIMPLE: Operating solver in SIMPLE mode



Starting time loop

forcesBase forces:
    Not including porosity effects
forces forces:
    Not including porosity effects
forceCoeffs forces:
    Not including porosity effects
forceCoeffs forces write:
    Cm    = -0.0131238
    Cd    = 0.0550363
    Cl    = -0.00034405
    Cl(f) = -0.0132958
    Cl(r) = 0.0129518

Time = 1s

smoothSolver:  Solving for Ux, Initial residual = 1, Final residual = 0.0868633, No Iterations 13
smoothSolver:  Solving for Uy, Initial residual = 1, Final residual = 0.0980534, No Iterations 11
smoothSolver:  Solving for Uz, Initial residual = 1, Final residual = 0.0946622, No Iterations 13
GAMG:  Solving for p, Initial residual = 1, Final residual = 0.0875011, No Iterations 4
time step continuity errors : sum local = 0.0474712, global = 0.000748963, cumulative = 0.000748963
smoothSolver:  Solving for omega, Initial residual = 0.0308186, Final residual = 0.00119889, No Iterations 2
smoothSolver:  Solving for k, Initial residual = 1, Final residual = 0.0372857, No Iterations 2
ExecutionTime = 1.90456 s  ClockTime = 2 s

forceCoeffs forces write:
    Cm    = -0.796039
    Cd    = 10.8457
    Cl    = -2.5863
    Cl(f) = -2.08919
    Cl(r) = -0.497111

Time = 2s

smoothSolver:  Solving for Ux, Initial residual = 0.216536, Final residual = 0.021628, No Iterations 4
smoothSolver:  Solving for Uy, Initial residual = 0.456787, Final residual = 0.0347456, No Iterations 4
smoothSolver:  Solving for Uz, Initial residual = 0.346345, Final residual = 0.0274889, No Iterations 4
GAMG:  Solving for p, Initial residual = 0.263638, Final residual = 0.0226993, No Iterations 2
time step continuity errors : sum local = 0.184826, global = 0.00105939, cumulative = 0.00180835
smoothSolver:  Solving for omega, Initial residual = 0.0173427, Final residual = 0.000831083, No Iterations 2
smoothSolver:  Solving for k, Initial residual = 0.226201, Final residual = 0.00663495, No Iterations 2
ExecutionTime = 2.7265 s  ClockTime = 2 s

forceCoeffs forces write:
    Cm    = -1.00624
    Cd    = 6.78189
    Cl    = -1.58281
    Cl(f) = -1.79765
    Cl(r) = 0.214831

Time = 3s

smoothSolver:  Solving for Ux, Initial residual = 0.105958, Final residual = 0.00674626, No Iterations 4
smoothSolver:  Solving for Uy, Initial residual = 0.296136, Final residual = 0.0174217, No Iterations 4
smoothSolver:  Solving for Uz, Initial residual = 0.190598, Final residual = 0.010871, No Iterations 4
GAMG:  Solving for p, Initial residual = 0.19884, Final residual = 0.00912165, No Iterations 3
time step continuity errors : sum local = 0.0553695, global = 0.00117228, cumulative = 0.00298063
smoothSolver:  Solving for omega, Initial residual = 0.0119977, Final residual = 0.000550038, No Iterations 2
smoothSolver:  Solving for k, Initial residual = 0.108011, Final residual = 0.0028064, No Iterations 2
ExecutionTime = 3.5616 s  ClockTime = 3 s

forceCoeffs forces write:
    Cm    = -0.96874
    Cd    = 3.68172
    Cl    = -0.777544
    Cl(f) = -1.35751
    Cl(r) = 0.579968

Time = 4s

smoothSolver:  Solving for Ux, Initial residual = 0.0606129, Final residual = 0.00363955, No Iterations 4
smoothSolver:  Solving for Uy, Initial residual = 0.227518, Final residual = 0.0213238, No Iterations 3
smoothSolver:  Solving for Uz, Initial residual = 0.136975, Final residual = 0.0121139, No Iterations 3
GAMG:  Solving for p, Initial residual = 0.120305, Final residual = 0.00898827, No Iterations 2
time step continuity errors : sum local = 0.0689903, global = -0.00100895, cumulative = 0.00197168
smoothSolver:  Solving for omega, Initial residual = 0.00895151, Final residual = 0.000382, No Iterations 2
smoothSolver:  Solving for k, Initial residual = 0.0776425, Final residual = 0.00194581, No Iterations 2
ExecutionTime = 4.37002 s  ClockTime = 4 s

forceCoeffs forces write:
    Cm    = -0.818908
    Cd    = 2.71484
    Cl    = -0.479312
    Cl(f) = -1.05856
    Cl(r) = 0.579252

Time = 5s

smoothSolver:  Solving for Ux, Initial residual = 0.0362373, Final residual = 0.00238379, No Iterations 4
smoothSolver:  Solving for Uy, Initial residual = 0.162116, Final residual = 0.0154348, No Iterations 3
smoothSolver:  Solving for Uz, Initial residual = 0.0907886, Final residual = 0.00905403, No Iterations 3
GAMG:  Solving for p, Initial residual = 0.104185, Final residual = 0.00724362, No Iterations 2
time step continuity errors : sum local = 0.0548686, global = -0.0014953, cumulative = 0.000476378
smoothSolver:  Solving for omega, Initial residual = 0.00737548, Final residual = 0.000320572, No Iterations 2
smoothSolver:  Solving for k, Initial residual = 0.0646519, Final residual = 0.00164635, No Iterations 2
ExecutionTime = 5.17525 s  ClockTime = 5 s

forceCoeffs forces write:
    Cm    = -0.688849
    Cd    = 2.21457
    Cl    = -0.302663
    Cl(f) = -0.840181
    Cl(r) = 0.537518

Time = 6s

smoothSolver:  Solving for Ux, Initial residual = 0.0279275, Final residual = 0.00174962, No Iterations 4
smoothSolver:  Solving for Uy, Initial residual = 0.129644, Final residual = 0.012718, No Iterations 3
smoothSolver:  Solving for Uz, Initial residual = 0.0765109, Final residual = 0.00434619, No Iterations 4
GAMG:  Solving for p, Initial residual = 0.0977779, Final residual = 0.00644657, No Iterations 2
time step continuity errors : sum local = 0.0459589, global = -0.00158246, cumulative = -0.00110608
smoothSolver:  Solving for omega, Initial residual = 0.00635982, Final residual = 0.000270121, No Iterations 2
smoothSolver:  Solving for k, Initial residual = 0.0564796, Final residual = 0.00144778, No Iterations 2
ExecutionTime = 5.98724 s  ClockTime = 6 s

forceCoeffs forces write:
    Cm    = -0.593855
    Cd    = 1.97068
    Cl    = -0.213161
    Cl(f) = -0.700435
    Cl(r) = 0.487275

Time = 7s

smoothSolver:  Solving for Ux, Initial residual = 0.0233935, Final residual = 0.00141335, No Iterations 4
smoothSolver:  Solving for Uy, Initial residual = 0.110822, Final residual = 0.0110774, No Iterations 3
smoothSolver:  Solving for Uz, Initial residual = 0.0715721, Final residual = 0.00399562, No Iterations 4
GAMG:  Solving for p, Initial residual = 0.0906386, Final residual = 0.006033, No Iterations 2
time step continuity errors : sum local = 0.0411171, global = -0.00103687, cumulative = -0.00214295
smoothSolver:  Solving for omega, Initial residual = 0.00558776, Final residual = 0.000231749, No Iterations 2
smoothSolver:  Solving for k, Initial residual = 0.0507006, Final residual = 0.00131567, No Iterations 2
ExecutionTime = 6.81334 s  ClockTime = 7 s

forceCoeffs forces write:
    Cm    = -0.529643
    Cd    = 1.85211
    Cl    = -0.175586
    Cl(f) = -0.617436
    Cl(r) = 0.44185

Time = 8s

smoothSolver:  Solving for Ux, Initial residual = 0.0208451, Final residual = 0.00122079, No Iterations 4
smoothSolver:  Solving for Uy, Initial residual = 0.0979987, Final residual = 0.00532796, No Iterations 4
smoothSolver:  Solving for Uz, Initial residual = 0.0688184, Final residual = 0.00383591, No Iterations 4
GAMG:  Solving for p, Initial residual = 0.0843111, Final residual = 0.00578959, No Iterations 2
time step continuity errors : sum local = 0.0380825, global = -0.000192047, cumulative = -0.002335
smoothSolver:  Solving for omega, Initial residual = 0.00500693, Final residual = 0.000199112, No Iterations 2
smoothSolver:  Solving for k, Initial residual = 0.0465316, Final residual = 0.00122765, No Iterations 2
ExecutionTime = 7.63827 s  ClockTime = 8 s

forceCoeffs forces write:
    Cm    = -0.487624
    Cd    = 1.80813
    Cl    = -0.167369
    Cl(f) = -0.571309
    Cl(r) = 0.40394

Time = 9s

smoothSolver:  Solving for Ux, Initial residual = 0.0191422, Final residual = 0.00109345, No Iterations 4
smoothSolver:  Solving for Uy, Initial residual = 0.0869611, Final residual = 0.00466235, No Iterations 4
smoothSolver:  Solving for Uz, Initial residual = 0.0665743, Final residual = 0.00367288, No Iterations 4
GAMG:  Solving for p, Initial residual = 0.0797316, Final residual = 0.00540563, No Iterations 2
time step continuity errors : sum local = 0.0345866, global = 5.33167e-05, cumulative = -0.00228168
smoothSolver:  Solving for omega, Initial residual = 0.00455136, Final residual = 0.000174583, No Iterations 2
smoothSolver:  Solving for k, Initial residual = 0.0436139, Final residual = 0.00118678, No Iterations 2
ExecutionTime = 8.45687 s  ClockTime = 8 s

forceCoeffs forces write:
    Cm    = -0.460742
    Cd    = 1.79981
    Cl    = -0.176573
    Cl(f) = -0.549029
    Cl(r) = 0.372456

Time = 10s

smoothSolver:  Solving for Ux, Initial residual = 0.0175892, Final residual = 0.000995687, No Iterations 4
smoothSolver:  Solving for Uy, Initial residual = 0.0769804, Final residual = 0.00766659, No Iterations 3
smoothSolver:  Solving for Uz, Initial residual = 0.0644995, Final residual = 0.00638913, No Iterations 3
GAMG:  Solving for p, Initial residual = 0.073085, Final residual = 0.00466742, No Iterations 2
time step continuity errors : sum local = 0.0299299, global = 0.000487412, cumulative = -0.00179427
smoothSolver:  Solving for omega, Initial residual = 0.00418192, Final residual = 0.000154905, No Iterations 2
smoothSolver:  Solving for k, Initial residual = 0.0413628, Final residual = 0.00116217, No Iterations 2
ExecutionTime = 9.2557 s  ClockTime = 9 s

forceCoeffs forces write:
    Cm    = -0.442773
    Cd    = 1.7949
    Cl    = -0.188711
    Cl(f) = -0.537128
    Cl(r) = 0.348418

Time = 11s

smoothSolver:  Solving for Ux, Initial residual = 0.016157, Final residual = 0.000914592, No Iterations 4
smoothSolver:  Solving for Uy, Initial residual = 0.0685776, Final residual = 0.00683337, No Iterations 3
smoothSolver:  Solving for Uz, Initial residual = 0.0617297, Final residual = 0.00606958, No Iterations 3
GAMG:  Solving for p, Initial residual = 0.0677985, Final residual = 0.00408511, No Iterations 2
time step continuity errors : sum local = 0.0262228, global = 0.00103772, cumulative = -0.000756552
smoothSolver:  Solving for omega, Initial residual = 0.00385884, Final residual = 0.000138823, No Iterations 2
smoothSolver:  Solving for k, Initial residual = 0.0394364, Final residual = 0.0011439, No Iterations 2
ExecutionTime = 10.0672 s  ClockTime = 10 s

forceCoeffs forces write:
    Cm    = -0.429833
    Cd    = 1.77815
    Cl    = -0.196926
    Cl(f) = -0.528296
    Cl(r) = 0.33137

Time = 12s

smoothSolver:  Solving for Ux, Initial residual = 0.0148814, Final residual = 0.000846003, No Iterations 4
smoothSolver:  Solving for Uy, Initial residual = 0.0618206, Final residual = 0.00615503, No Iterations 3
smoothSolver:  Solving for Uz, Initial residual = 0.0582959, Final residual = 0.00572721, No Iterations 3
GAMG:  Solving for p, Initial residual = 0.0629715, Final residual = 0.0037208, No Iterations 2
time step continuity errors : sum local = 0.0237843, global = 0.00163824, cumulative = 0.000881685
smoothSolver:  Solving for omega, Initial residual = 0.00357343, Final residual = 0.000125228, No Iterations 2
smoothSolver:  Solving for k, Initial residual = 0.037594, Final residual = 0.00111703, No Iterations 2
ExecutionTime = 10.8908 s  ClockTime = 11 s

forceCoeffs forces write:
    Cm    = -0.41902
    Cd    = 1.75194
    Cl    = -0.201072
    Cl(f) = -0.519556
    Cl(r) = 0.318484

Time = 13s

smoothSolver:  Solving for Ux, Initial residual = 0.0138045, Final residual = 0.000781072, No Iterations 4
smoothSolver:  Solving for Uy, Initial residual = 0.0564408, Final residual = 0.00558611, No Iterations 3
smoothSolver:  Solving for Uz, Initial residual = 0.0543787, Final residual = 0.00533502, No Iterations 3
GAMG:  Solving for p, Initial residual = 0.0586903, Final residual = 0.00348519, No Iterations 2
time step continuity errors : sum local = 0.0223255, global = 0.00161653, cumulative = 0.00249822
smoothSolver:  Solving for omega, Initial residual = 0.00332498, Final residual = 0.000113599, No Iterations 2
smoothSolver:  Solving for k, Initial residual = 0.0357998, Final residual = 0.00108679, No Iterations 2
ExecutionTime = 11.6969 s  ClockTime = 12 s

forceCoeffs forces write:
    Cm    = -0.409105
    Cd    = 1.71911
    Cl    = -0.201636
    Cl(f) = -0.509923
    Cl(r) = 0.308287

Time = 14s

smoothSolver:  Solving for Ux, Initial residual = 0.0125921, Final residual = 0.000714065, No Iterations 4
smoothSolver:  Solving for Uy, Initial residual = 0.0522368, Final residual = 0.0051268, No Iterations 3
smoothSolver:  Solving for Uz, Initial residual = 0.0506021, Final residual = 0.00496374, No Iterations 3
GAMG:  Solving for p, Initial residual = 0.053336, Final residual = 0.00314994, No Iterations 2
time step continuity errors : sum local = 0.0208099, global = 0.00148741, cumulative = 0.00398562
smoothSolver:  Solving for omega, Initial residual = 0.00312257, Final residual = 0.000103627, No Iterations 2
smoothSolver:  Solving for k, Initial residual = 0.0341097, Final residual = 0.00105141, No Iterations 2
ExecutionTime = 12.5184 s  ClockTime = 12 s

forceCoeffs forces write:
    Cm    = -0.399735
    Cd    = 1.6875
    Cl    = -0.203233
    Cl(f) = -0.501351
    Cl(r) = 0.298118

Time = 15s

smoothSolver:  Solving for Ux, Initial residual = 0.0114871, Final residual = 0.000650434, No Iterations 4
smoothSolver:  Solving for Uy, Initial residual = 0.048626, Final residual = 0.00473599, No Iterations 3
smoothSolver:  Solving for Uz, Initial residual = 0.0469597, Final residual = 0.00460266, No Iterations 3
GAMG:  Solving for p, Initial residual = 0.0488058, Final residual = 0.0028146, No Iterations 2
time step continuity errors : sum local = 0.019124, global = 0.00128156, cumulative = 0.00526718
smoothSolver:  Solving for omega, Initial residual = 0.00293911, Final residual = 9.49178e-05, No Iterations 2
smoothSolver:  Solving for k, Initial residual = 0.0324776, Final residual = 0.00101187, No Iterations 2
ExecutionTime = 13.3214 s  ClockTime = 13 s

forceCoeffs forces write:
    Cm    = -0.390333
    Cd    = 1.65956
    Cl    = -0.207549
    Cl(f) = -0.494107
    Cl(r) = 0.286559

Time = 16s

smoothSolver:  Solving for Ux, Initial residual = 0.0105904, Final residual = 0.000594107, No Iterations 4
smoothSolver:  Solving for Uy, Initial residual = 0.0456065, Final residual = 0.0043926, No Iterations 3
smoothSolver:  Solving for Uz, Initial residual = 0.0437304, Final residual = 0.00427031, No Iterations 3
GAMG:  Solving for p, Initial residual = 0.0451554, Final residual = 0.00255083, No Iterations 2
time step continuity errors : sum local = 0.0176418, global = 0.00101406, cumulative = 0.00628124
smoothSolver:  Solving for omega, Initial residual = 0.00277268, Final residual = 8.69392e-05, No Iterations 2
smoothSolver:  Solving for k, Initial residual = 0.0308818, Final residual = 0.000969902, No Iterations 2
ExecutionTime = 14.1332 s  ClockTime = 14 s

forceCoeffs forces write:
    Cm    = -0.380679
    Cd    = 1.63574
    Cl    = -0.214908
    Cl(f) = -0.488133
    Cl(r) = 0.273225

Time = 17s

smoothSolver:  Solving for Ux, Initial residual = 0.00985876, Final residual = 0.000545556, No Iterations 4
smoothSolver:  Solving for Uy, Initial residual = 0.0428763, Final residual = 0.00407273, No Iterations 3
smoothSolver:  Solving for Uz, Initial residual = 0.0407454, Final residual = 0.00396583, No Iterations 3
GAMG:  Solving for p, Initial residual = 0.0423056, Final residual = 0.00236973, No Iterations 2
time step continuity errors : sum local = 0.0165058, global = 0.000844743, cumulative = 0.00712599
smoothSolver:  Solving for omega, Initial residual = 0.00261508, Final residual = 7.975e-05, No Iterations 2
smoothSolver:  Solving for k, Initial residual = 0.0293374, Final residual = 0.000926719, No Iterations 2
ExecutionTime = 14.9358 s  ClockTime = 15 s

forceCoeffs forces write:
    Cm    = -0.370992
    Cd    = 1.61614
    Cl    = -0.224978
    Cl(f) = -0.483481
    Cl(r) = 0.258503

Time = 18s

smoothSolver:  Solving for Ux, Initial residual = 0.0092709, Final residual = 0.000505847, No Iterations 4
smoothSolver:  Solving for Uy, Initial residual = 0.0401107, Final residual = 0.00376532, No Iterations 3
smoothSolver:  Solving for Uz, Initial residual = 0.0379413, Final residual = 0.00368797, No Iterations 3
GAMG:  Solving for p, Initial residual = 0.0400066, Final residual = 0.00228574, No Iterations 2
time step continuity errors : sum local = 0.0158442, global = 0.000714373, cumulative = 0.00784036
smoothSolver:  Solving for omega, Initial residual = 0.00246861, Final residual = 7.3623e-05, No Iterations 2
smoothSolver:  Solving for k, Initial residual = 0.027944, Final residual = 0.000884882, No Iterations 2
ExecutionTime = 15.7453 s  ClockTime = 16 s

forceCoeffs forces write:
    Cm    = -0.361478
    Cd    = 1.59948
    Cl    = -0.237169
    Cl(f) = -0.480062
    Cl(r) = 0.242893

Time = 19s

smoothSolver:  Solving for Ux, Initial residual = 0.00872064, Final residual = 0.000471894, No Iterations 4
smoothSolver:  Solving for Uy, Initial residual = 0.0373723, Final residual = 0.00347633, No Iterations 3
smoothSolver:  Solving for Uz, Initial residual = 0.0353543, Final residual = 0.00344539, No Iterations 3
GAMG:  Solving for p, Initial residual = 0.0379612, Final residual = 0.00222851, No Iterations 2
time step continuity errors : sum local = 0.0153444, global = 0.000613688, cumulative = 0.00845405
smoothSolver:  Solving for omega, Initial residual = 0.00234456, Final residual = 6.84576e-05, No Iterations 2
smoothSolver:  Solving for k, Initial residual = 0.0267607, Final residual = 0.000849682, No Iterations 2
ExecutionTime = 16.5521 s  ClockTime = 17 s

forceCoeffs forces write:
    Cm    = -0.352555
    Cd    = 1.58555
    Cl    = -0.250627
    Cl(f) = -0.477868
    Cl(r) = 0.227241

Time = 20s

smoothSolver:  Solving for Ux, Initial residual = 0.00820387, Final residual = 0.000444587, No Iterations 4
smoothSolver:  Solving for Uy, Initial residual = 0.0347974, Final residual = 0.00320748, No Iterations 3
smoothSolver:  Solving for Uz, Initial residual = 0.0328821, Final residual = 0.00322104, No Iterations 3
GAMG:  Solving for p, Initial residual = 0.0360511, Final residual = 0.00214289, No Iterations 2
time step continuity errors : sum local = 0.014637, global = 0.000527506, cumulative = 0.00898155
smoothSolver:  Solving for omega, Initial residual = 0.00222816, Final residual = 6.41051e-05, No Iterations 2
smoothSolver:  Solving for k, Initial residual = 0.0257483, Final residual = 0.000825543, No Iterations 2
ExecutionTime = 17.3622 s  ClockTime = 17 s

forceCoeffs forces write:
    Cm    = -0.344574
    Cd    = 1.5736
    Cl    = -0.263932
    Cl(f) = -0.47654
    Cl(r) = 0.212608

Time = 21s

smoothSolver:  Solving for Ux, Initial residual = 0.00771838, Final residual = 0.000422385, No Iterations 4
smoothSolver:  Solving for Uy, Initial residual = 0.0325051, Final residual = 0.00297097, No Iterations 3
smoothSolver:  Solving for Uz, Initial residual = 0.0305221, Final residual = 0.00301073, No Iterations 3
GAMG:  Solving for p, Initial residual = 0.0342347, Final residual = 0.00201173, No Iterations 2
time step continuity errors : sum local = 0.013628, global = 0.000424411, cumulative = 0.00940596
smoothSolver:  Solving for omega, Initial residual = 0.00212032, Final residual = 6.03735e-05, No Iterations 2
smoothSolver:  Solving for k, Initial residual = 0.0248706, Final residual = 0.000810779, No Iterations 2
ExecutionTime = 18.1681 s  ClockTime = 18 s

forceCoeffs forces write:
    Cm    = -0.337941
    Cd    = 1.56322
    Cl    = -0.275692
    Cl(f) = -0.475787
    Cl(r) = 0.200095

Time = 22s

smoothSolver:  Solving for Ux, Initial residual = 0.00727564, Final residual = 0.000402335, No Iterations 4
smoothSolver:  Solving for Uy, Initial residual = 0.0304696, Final residual = 0.00276545, No Iterations 3
smoothSolver:  Solving for Uz, Initial residual = 0.0283983, Final residual = 0.00282911, No Iterations 3
GAMG:  Solving for p, Initial residual = 0.0324402, Final residual = 0.00185913, No Iterations 2
time step continuity errors : sum local = 0.0124894, global = 0.000351904, cumulative = 0.00975787
smoothSolver:  Solving for omega, Initial residual = 0.00202544, Final residual = 5.71262e-05, No Iterations 2
smoothSolver:  Solving for k, Initial residual = 0.0241066, Final residual = 0.000802593, No Iterations 2
ExecutionTime = 18.9809 s  ClockTime = 19 s

forceCoeffs forces write:
    Cm    = -0.332938
    Cd    = 1.55392
    Cl    = -0.284342
    Cl(f) = -0.475109
    Cl(r) = 0.190767

Time = 23s

smoothSolver:  Solving for Ux, Initial residual = 0.00687768, Final residual = 0.000382828, No Iterations 4
smoothSolver:  Solving for Uy, Initial residual = 0.0286298, Final residual = 0.00258992, No Iterations 3
smoothSolver:  Solving for Uz, Initial residual = 0.0265819, Final residual = 0.00147404, No Iterations 4
GAMG:  Solving for p, Initial residual = 0.030859, Final residual = 0.00174367, No Iterations 2
time step continuity errors : sum local = 0.0116083, global = 0.00029403, cumulative = 0.0100519
smoothSolver:  Solving for omega, Initial residual = 0.00193687, Final residual = 5.43285e-05, No Iterations 2
smoothSolver:  Solving for k, Initial residual = 0.0234115, Final residual = 0.000797514, No Iterations 2
ExecutionTime = 19.7989 s  ClockTime = 20 s

forceCoeffs forces write:
    Cm    = -0.32962
    Cd    = 1.54542
    Cl    = -0.289416
    Cl(f) = -0.474328
    Cl(r) = 0.184912

Time = 24s

smoothSolver:  Solving for Ux, Initial residual = 0.00653708, Final residual = 0.000367416, No Iterations 4
smoothSolver:  Solving for Uy, Initial residual = 0.0269673, Final residual = 0.00244113, No Iterations 3
smoothSolver:  Solving for Uz, Initial residual = 0.0248069, Final residual = 0.00140511, No Iterations 4
GAMG:  Solving for p, Initial residual = 0.0292993, Final residual = 0.00163, No Iterations 2
time step continuity errors : sum local = 0.0107443, global = 0.000262571, cumulative = 0.0103145
smoothSolver:  Solving for omega, Initial residual = 0.00185008, Final residual = 5.17812e-05, No Iterations 2
smoothSolver:  Solving for k, Initial residual = 0.0227204, Final residual = 0.000791621, No Iterations 2
ExecutionTime = 20.6247 s  ClockTime = 21 s

forceCoeffs forces write:
    Cm    = -0.328032
    Cd    = 1.53752
    Cl    = -0.290282
    Cl(f) = -0.473173
    Cl(r) = 0.182891

Time = 25s

smoothSolver:  Solving for Ux, Initial residual = 0.00622173, Final residual = 0.000353865, No Iterations 4
smoothSolver:  Solving for Uy, Initial residual = 0.0255708, Final residual = 0.00229952, No Iterations 3
smoothSolver:  Solving for Uz, Initial residual = 0.0234978, Final residual = 0.00136058, No Iterations 4
GAMG:  Solving for p, Initial residual = 0.0278391, Final residual = 0.0015461, No Iterations 2
time step continuity errors : sum local = 0.0100844, global = 0.000256009, cumulative = 0.0105705
smoothSolver:  Solving for omega, Initial residual = 0.00176828, Final residual = 4.93311e-05, No Iterations 2
smoothSolver:  Solving for k, Initial residual = 0.0220429, Final residual = 0.000784683, No Iterations 2
ExecutionTime = 21.4414 s  ClockTime = 22 s

forceCoeffs forces write:
    Cm    = -0.327916
    Cd    = 1.53018
    Cl    = -0.287753
    Cl(f) = -0.471793
    Cl(r) = 0.18404

Time = 26s

smoothSolver:  Solving for Ux, Initial residual = 0.00593048, Final residual = 0.000342363, No Iterations 4
smoothSolver:  Solving for Uy, Initial residual = 0.0243884, Final residual = 0.00217431, No Iterations 3
smoothSolver:  Solving for Uz, Initial residual = 0.0226122, Final residual = 0.00133628, No Iterations 4
GAMG:  Solving for p, Initial residual = 0.0264351, Final residual = 0.00148791, No Iterations 2
time step continuity errors : sum local = 0.00960835, global = 0.000257371, cumulative = 0.0108278
smoothSolver:  Solving for omega, Initial residual = 0.00169241, Final residual = 4.69341e-05, No Iterations 2
smoothSolver:  Solving for k, Initial residual = 0.0214193, Final residual = 0.000774808, No Iterations 2
ExecutionTime = 22.2473 s  ClockTime = 22 s

forceCoeffs forces write:
    Cm    = -0.32887
    Cd    = 1.52307
    Cl    = -0.282652
    Cl(f) = -0.470196
    Cl(r) = 0.187544

Time = 27s

smoothSolver:  Solving for Ux, Initial residual = 0.0056872, Final residual = 0.000332277, No Iterations 4
smoothSolver:  Solving for Uy, Initial residual = 0.0234145, Final residual = 0.00209256, No Iterations 3
smoothSolver:  Solving for Uz, Initial residual = 0.0220171, Final residual = 0.00132989, No Iterations 4
GAMG:  Solving for p, Initial residual = 0.0250269, Final residual = 0.00145312, No Iterations 2
time step continuity errors : sum local = 0.00929743, global = 0.000254569, cumulative = 0.0110824
smoothSolver:  Solving for omega, Initial residual = 0.00162277, Final residual = 4.46471e-05, No Iterations 2
smoothSolver:  Solving for k, Initial residual = 0.0208691, Final residual = 0.000760328, No Iterations 2
ExecutionTime = 23.0756 s  ClockTime = 23 s

forceCoeffs forces write:
    Cm    = -0.330621
    Cd    = 1.51576
    Cl    = -0.275741
    Cl(f) = -0.468492
    Cl(r) = 0.192751

Time = 28s

smoothSolver:  Solving for Ux, Initial residual = 0.0054989, Final residual = 0.000326009, No Iterations 4
smoothSolver:  Solving for Uy, Initial residual = 0.0226582, Final residual = 0.0020549, No Iterations 3
smoothSolver:  Solving for Uz, Initial residual = 0.0217013, Final residual = 0.0013478, No Iterations 4
GAMG:  Solving for p, Initial residual = 0.0237991, Final residual = 0.00143387, No Iterations 2
time step continuity errors : sum local = 0.00910335, global = 0.000234094, cumulative = 0.0113165
smoothSolver:  Solving for omega, Initial residual = 0.00156115, Final residual = 4.25498e-05, No Iterations 2
smoothSolver:  Solving for k, Initial residual = 0.0204102, Final residual = 0.000742247, No Iterations 2
ExecutionTime = 23.8802 s  ClockTime = 24 s

forceCoeffs forces write:
    Cm    = -0.332868
    Cd    = 1.5079
    Cl    = -0.267467
    Cl(f) = -0.466602
    Cl(r) = 0.199135

Time = 29s

smoothSolver:  Solving for Ux, Initial residual = 0.00536451, Final residual = 0.000326244, No Iterations 4
smoothSolver:  Solving for Uy, Initial residual = 0.0221812, Final residual = 0.00205086, No Iterations 3
smoothSolver:  Solving for Uz, Initial residual = 0.0216729, Final residual = 0.00140433, No Iterations 4
GAMG:  Solving for p, Initial residual = 0.0227196, Final residual = 0.00141824, No Iterations 2
time step continuity errors : sum local = 0.00895073, global = 0.000191901, cumulative = 0.0115084
smoothSolver:  Solving for omega, Initial residual = 0.0015091, Final residual = 4.06982e-05, No Iterations 2
smoothSolver:  Solving for k, Initial residual = 0.0200584, Final residual = 0.000723489, No Iterations 2
ExecutionTime = 24.69 s  ClockTime = 25 s

forceCoeffs forces write:
    Cm    = -0.335361
    Cd    = 1.4995
    Cl    = -0.258431
    Cl(f) = -0.464576
    Cl(r) = 0.206145

Time = 30s

smoothSolver:  Solving for Ux, Initial residual = 0.00527926, Final residual = 0.000334765, No Iterations 4
smoothSolver:  Solving for Uy, Initial residual = 0.0219958, Final residual = 0.00208442, No Iterations 3
smoothSolver:  Solving for Uz, Initial residual = 0.0219605, Final residual = 0.00150045, No Iterations 4
GAMG:  Solving for p, Initial residual = 0.0217656, Final residual = 0.00140853, No Iterations 2
time step continuity errors : sum local = 0.0088443, global = 0.000137271, cumulative = 0.0116457
smoothSolver:  Solving for omega, Initial residual = 0.00147027, Final residual = 3.93345e-05, No Iterations 2
smoothSolver:  Solving for k, Initial residual = 0.019816, Final residual = 0.000709629, No Iterations 2
ExecutionTime = 25.51 s  ClockTime = 26 s

forceCoeffs forces write:
    Cm    = -0.337799
    Cd    = 1.49076
    Cl    = -0.24902
    Cl(f) = -0.462308
    Cl(r) = 0.213289

Time = 31s

smoothSolver:  Solving for Ux, Initial residual = 0.00524839, Final residual = 0.000348675, No Iterations 4
smoothSolver:  Solving for Uy, Initial residual = 0.0221074, Final residual = 0.00215132, No Iterations 3
smoothSolver:  Solving for Uz, Initial residual = 0.0225197, Final residual = 0.0016223, No Iterations 4
GAMG:  Solving for p, Initial residual = 0.0209421, Final residual = 0.00140281, No Iterations 2
time step continuity errors : sum local = 0.0087734, global = 3.64658e-05, cumulative = 0.0116822
smoothSolver:  Solving for omega, Initial residual = 0.00143872, Final residual = 3.84628e-05, No Iterations 2
smoothSolver:  Solving for k, Initial residual = 0.019664, Final residual = 0.000710524, No Iterations 2
ExecutionTime = 26.3232 s  ClockTime = 26 s

forceCoeffs forces write:
    Cm    = -0.33998
    Cd    = 1.48235
    Cl    = -0.240021
    Cl(f) = -0.45999
    Cl(r) = 0.219969

Time = 32s

smoothSolver:  Solving for Ux, Initial residual = 0.00525695, Final residual = 0.000365614, No Iterations 4
smoothSolver:  Solving for Uy, Initial residual = 0.0224573, Final residual = 0.00119001, No Iterations 4
smoothSolver:  Solving for Uz, Initial residual = 0.0231614, Final residual = 0.00174521, No Iterations 4
GAMG:  Solving for p, Initial residual = 0.020329, Final residual = 0.00139574, No Iterations 2
time step continuity errors : sum local = 0.00870386, global = -7.3836e-05, cumulative = 0.0116083
smoothSolver:  Solving for omega, Initial residual = 0.001412, Final residual = 3.80253e-05, No Iterations 2
smoothSolver:  Solving for k, Initial residual = 0.0195872, Final residual = 0.00072291, No Iterations 2
ExecutionTime = 27.1425 s  ClockTime = 27 s

forceCoeffs forces write:
    Cm    = -0.341578
    Cd    = 1.47452
    Cl    = -0.232043
    Cl(f) = -0.4576
    Cl(r) = 0.225557

Time = 33s

smoothSolver:  Solving for Ux, Initial residual = 0.00530707, Final residual = 0.000384252, No Iterations 4
smoothSolver:  Solving for Uy, Initial residual = 0.0227241, Final residual = 0.00122554, No Iterations 4
smoothSolver:  Solving for Uz, Initial residual = 0.0238621, Final residual = 0.00186075, No Iterations 4
GAMG:  Solving for p, Initial residual = 0.0198543, Final residual = 0.00138769, No Iterations 2
time step continuity errors : sum local = 0.00863231, global = -0.000233114, cumulative = 0.0113752
smoothSolver:  Solving for omega, Initial residual = 0.0013846, Final residual = 3.7782e-05, No Iterations 2
smoothSolver:  Solving for k, Initial residual = 0.0195347, Final residual = 0.00074386, No Iterations 2
ExecutionTime = 27.9559 s  ClockTime = 28 s

forceCoeffs forces write:
    Cm    = -0.342518
    Cd    = 1.46777
    Cl    = -0.225626
    Cl(f) = -0.45533
    Cl(r) = 0.229705

Time = 34s

smoothSolver:  Solving for Ux, Initial residual = 0.00536434, Final residual = 0.000400735, No Iterations 4
smoothSolver:  Solving for Uy, Initial residual = 0.023128, Final residual = 0.00127095, No Iterations 4
smoothSolver:  Solving for Uz, Initial residual = 0.0245335, Final residual = 0.00195041, No Iterations 4
GAMG:  Solving for p, Initial residual = 0.0195346, Final residual = 0.00135483, No Iterations 2
time step continuity errors : sum local = 0.00840267, global = -0.000341712, cumulative = 0.0110335
smoothSolver:  Solving for omega, Initial residual = 0.00135465, Final residual = 3.74779e-05, No Iterations 2
smoothSolver:  Solving for k, Initial residual = 0.0194668, Final residual = 0.000766713, No Iterations 2
ExecutionTime = 28.7721 s  ClockTime = 28 s

forceCoeffs forces write:
    Cm    = -0.342784
    Cd    = 1.46251
    Cl    = -0.221099
    Cl(f) = -0.453334
    Cl(r) = 0.232235

Time = 35s

smoothSolver:  Solving for Ux, Initial residual = 0.00543139, Final residual = 0.000413039, No Iterations 4
smoothSolver:  Solving for Uy, Initial residual = 0.0236548, Final residual = 0.00132847, No Iterations 4
smoothSolver:  Solving for Uz, Initial residual = 0.0251984, Final residual = 0.00201403, No Iterations 4
GAMG:  Solving for p, Initial residual = 0.0193676, Final residual = 0.00135074, No Iterations 2
time step continuity errors : sum local = 0.0082885, global = -0.000409513, cumulative = 0.010624
smoothSolver:  Solving for omega, Initial residual = 0.00132965, Final residual = 3.69786e-05, No Iterations 2
smoothSolver:  Solving for k, Initial residual = 0.0193885, Final residual = 0.000783862, No Iterations 2
ExecutionTime = 29.5998 s  ClockTime = 29 s

forceCoeffs forces write:
    Cm    = -0.342163
    Cd    = 1.45942
    Cl    = -0.219423
    Cl(f) = -0.451875
    Cl(r) = 0.232452

Time = 36s

smoothSolver:  Solving for Ux, Initial residual = 0.00548412, Final residual = 0.000421257, No Iterations 4
smoothSolver:  Solving for Uy, Initial residual = 0.0240169, Final residual = 0.00138257, No Iterations 4
smoothSolver:  Solving for Uz, Initial residual = 0.0257132, Final residual = 0.00204737, No Iterations 4
GAMG:  Solving for p, Initial residual = 0.0192693, Final residual = 0.00136485, No Iterations 2
time step continuity errors : sum local = 0.00828629, global = -0.000474113, cumulative = 0.0101499
smoothSolver:  Solving for omega, Initial residual = 0.00130162, Final residual = 3.62425e-05, No Iterations 2
smoothSolver:  Solving for k, Initial residual = 0.0192808, Final residual = 0.000793746, No Iterations 2
ExecutionTime = 30.4168 s  ClockTime = 30 s

forceCoeffs forces write:
    Cm    = -0.340784
    Cd    = 1.45781
    Cl    = -0.220287
    Cl(f) = -0.450927
    Cl(r) = 0.23064

Time = 37s

smoothSolver:  Solving for Ux, Initial residual = 0.00552048, Final residual = 0.000425332, No Iterations 4
smoothSolver:  Solving for Uy, Initial residual = 0.024452, Final residual = 0.00143685, No Iterations 4
smoothSolver:  Solving for Uz, Initial residual = 0.0262065, Final residual = 0.00207499, No Iterations 4
GAMG:  Solving for p, Initial residual = 0.0191604, Final residual = 0.00137553, No Iterations 2
time step continuity errors : sum local = 0.00826928, global = -0.000559274, cumulative = 0.00959059
smoothSolver:  Solving for omega, Initial residual = 0.00127142, Final residual = 3.53054e-05, No Iterations 2
smoothSolver:  Solving for k, Initial residual = 0.0191387, Final residual = 0.000796227, No Iterations 2
ExecutionTime = 31.2402 s  ClockTime = 31 s

forceCoeffs forces write:
    Cm    = -0.338854
    Cd    = 1.45758
    Cl    = -0.223636
    Cl(f) = -0.450672
    Cl(r) = 0.227036

Time = 38s

smoothSolver:  Solving for Ux, Initial residual = 0.00554325, Final residual = 0.000426102, No Iterations 4
smoothSolver:  Solving for Uy, Initial residual = 0.0249703, Final residual = 0.00149413, No Iterations 4
smoothSolver:  Solving for Uz, Initial residual = 0.0266581, Final residual = 0.00211563, No Iterations 4
GAMG:  Solving for p, Initial residual = 0.0189798, Final residual = 0.0013854, No Iterations 2
time step continuity errors : sum local = 0.00824389, global = -0.00063549, cumulative = 0.0089551
smoothSolver:  Solving for omega, Initial residual = 0.00124236, Final residual = 3.42123e-05, No Iterations 2
smoothSolver:  Solving for k, Initial residual = 0.018965, Final residual = 0.000792745, No Iterations 2
ExecutionTime = 32.0538 s  ClockTime = 32 s

forceCoeffs forces write:
    Cm    = -0.336503
    Cd    = 1.45863
    Cl    = -0.22912
    Cl(f) = -0.451063
    Cl(r) = 0.221943

Time = 39s

smoothSolver:  Solving for Ux, Initial residual = 0.00555718, Final residual = 0.000425888, No Iterations 4
smoothSolver:  Solving for Uy, Initial residual = 0.0255564, Final residual = 0.00155402, No Iterations 4
smoothSolver:  Solving for Uz, Initial residual = 0.027054, Final residual = 0.00216948, No Iterations 4
GAMG:  Solving for p, Initial residual = 0.0187157, Final residual = 0.00140738, No Iterations 2
time step continuity errors : sum local = 0.00828292, global = -0.000678563, cumulative = 0.00827654
smoothSolver:  Solving for omega, Initial residual = 0.00121607, Final residual = 3.31269e-05, No Iterations 2
smoothSolver:  Solving for k, Initial residual = 0.0187602, Final residual = 0.000784748, No Iterations 2
ExecutionTime = 32.8763 s  ClockTime = 33 s

forceCoeffs forces write:
    Cm    = -0.333941
    Cd    = 1.46078
    Cl    = -0.236495
    Cl(f) = -0.452189
    Cl(r) = 0.215693

Time = 40s

smoothSolver:  Solving for Ux, Initial residual = 0.0055734, Final residual = 0.000430388, No Iterations 4
smoothSolver:  Solving for Uy, Initial residual = 0.0261771, Final residual = 0.00161763, No Iterations 4
smoothSolver:  Solving for Uz, Initial residual = 0.0273978, Final residual = 0.00223792, No Iterations 4
GAMG:  Solving for p, Initial residual = 0.018483, Final residual = 0.00145153, No Iterations 2
time step continuity errors : sum local = 0.00844643, global = -0.000687298, cumulative = 0.00758924
smoothSolver:  Solving for omega, Initial residual = 0.00119252, Final residual = 3.21412e-05, No Iterations 2
smoothSolver:  Solving for k, Initial residual = 0.0185289, Final residual = 0.000772968, No Iterations 2
ExecutionTime = 33.6931 s  ClockTime = 33 s

forceCoeffs forces write:
    Cm    = -0.331368
    Cd    = 1.46368
    Cl    = -0.244898
    Cl(f) = -0.453817
    Cl(r) = 0.208919

Time = 41s

smoothSolver:  Solving for Ux, Initial residual = 0.00559734, Final residual = 0.000441495, No Iterations 4
smoothSolver:  Solving for Uy, Initial residual = 0.0268071, Final residual = 0.00168615, No Iterations 4
smoothSolver:  Solving for Uz, Initial residual = 0.0278168, Final residual = 0.002329, No Iterations 4
GAMG:  Solving for p, Initial residual = 0.0181871, Final residual = 0.00149094, No Iterations 2
time step continuity errors : sum local = 0.00857294, global = -0.000672994, cumulative = 0.00691625
smoothSolver:  Solving for omega, Initial residual = 0.00117231, Final residual = 3.13549e-05, No Iterations 2
smoothSolver:  Solving for k, Initial residual = 0.0182915, Final residual = 0.000758353, No Iterations 2
ExecutionTime = 34.5045 s  ClockTime = 34 s

forceCoeffs forces write:
    Cm    = -0.329072
    Cd    = 1.46678
    Cl    = -0.253503
    Cl(f) = -0.455824
    Cl(r) = 0.202321

Time = 42s

smoothSolver:  Solving for Ux, Initial residual = 0.00562817, Final residual = 0.000457018, No Iterations 4
smoothSolver:  Solving for Uy, Initial residual = 0.0274044, Final residual = 0.00175198, No Iterations 4
smoothSolver:  Solving for Uz, Initial residual = 0.0284174, Final residual = 0.00244173, No Iterations 4
GAMG:  Solving for p, Initial residual = 0.0177919, Final residual = 0.00149446, No Iterations 2
time step continuity errors : sum local = 0.00849226, global = -0.00063173, cumulative = 0.00628452
smoothSolver:  Solving for omega, Initial residual = 0.00115321, Final residual = 3.08742e-05, No Iterations 2
smoothSolver:  Solving for k, Initial residual = 0.0180644, Final residual = 0.000742591, No Iterations 2
ExecutionTime = 35.3132 s  ClockTime = 35 s

forceCoeffs forces write:
    Cm    = -0.327264
    Cd    = 1.46988
    Cl    = -0.261398
    Cl(f) = -0.457963
    Cl(r) = 0.196565

Time = 43s

smoothSolver:  Solving for Ux, Initial residual = 0.00566421, Final residual = 0.000474837, No Iterations 4
smoothSolver:  Solving for Uy, Initial residual = 0.0279192, Final residual = 0.00179944, No Iterations 4
smoothSolver:  Solving for Uz, Initial residual = 0.0290939, Final residual = 0.00256543, No Iterations 4
GAMG:  Solving for p, Initial residual = 0.0173367, Final residual = 0.00145968, No Iterations 2
time step continuity errors : sum local = 0.00819949, global = -0.000570562, cumulative = 0.00571395
smoothSolver:  Solving for omega, Initial residual = 0.00113394, Final residual = 3.06409e-05, No Iterations 2
smoothSolver:  Solving for k, Initial residual = 0.0178411, Final residual = 0.000727376, No Iterations 2
ExecutionTime = 36.1311 s  ClockTime = 36 s

forceCoeffs forces write:
    Cm    = -0.326082
    Cd    = 1.47277
    Cl    = -0.268035
    Cl(f) = -0.4601
    Cl(r) = 0.192064

Time = 44s

smoothSolver:  Solving for Ux, Initial residual = 0.00569874, Final residual = 0.000492818, No Iterations 4
smoothSolver:  Solving for Uy, Initial residual = 0.0282803, Final residual = 0.00182, No Iterations 4
smoothSolver:  Solving for Uz, Initial residual = 0.0298732, Final residual = 0.00268765, No Iterations 4
GAMG:  Solving for p, Initial residual = 0.0169192, Final residual = 0.00140061, No Iterations 2
time step continuity errors : sum local = 0.0077786, global = -0.000513496, cumulative = 0.00520046
smoothSolver:  Solving for omega, Initial residual = 0.00111326, Final residual = 3.03533e-05, No Iterations 2
smoothSolver:  Solving for k, Initial residual = 0.017598, Final residual = 0.000715263, No Iterations 2
ExecutionTime = 36.9482 s  ClockTime = 37 s

forceCoeffs forces write:
    Cm    = -0.325476
    Cd    = 1.47537
    Cl    = -0.272895
    Cl(f) = -0.461923
    Cl(r) = 0.189028

Time = 45s

smoothSolver:  Solving for Ux, Initial residual = 0.00572538, Final residual = 0.000508571, No Iterations 4
smoothSolver:  Solving for Uy, Initial residual = 0.0283964, Final residual = 0.00180974, No Iterations 4
smoothSolver:  Solving for Uz, Initial residual = 0.0306762, Final residual = 0.00280088, No Iterations 4
GAMG:  Solving for p, Initial residual = 0.0165521, Final residual = 0.00133381, No Iterations 2
time step continuity errors : sum local = 0.00733062, global = -0.000476696, cumulative = 0.00472376
smoothSolver:  Solving for omega, Initial residual = 0.00109236, Final residual = 2.99018e-05, No Iterations 2
smoothSolver:  Solving for k, Initial residual = 0.0173176, Final residual = 0.000706126, No Iterations 2
ExecutionTime = 37.7634 s  ClockTime = 38 s

forceCoeffs forces write:
    Cm    = -0.325431
    Cd    = 1.47758
    Cl    = -0.276043
    Cl(f) = -0.463453
    Cl(r) = 0.18741

Time = 46s

smoothSolver:  Solving for Ux, Initial residual = 0.00574364, Final residual = 0.000521311, No Iterations 4
smoothSolver:  Solving for Uy, Initial residual = 0.0282683, Final residual = 0.00177445, No Iterations 4
smoothSolver:  Solving for Uz, Initial residual = 0.0314377, Final residual = 0.00289462, No Iterations 4
GAMG:  Solving for p, Initial residual = 0.0161161, Final residual = 0.00127009, No Iterations 2
time step continuity errors : sum local = 0.00692468, global = -0.000439284, cumulative = 0.00428448
smoothSolver:  Solving for omega, Initial residual = 0.00107027, Final residual = 2.92555e-05, No Iterations 2
smoothSolver:  Solving for k, Initial residual = 0.0169732, Final residual = 0.000693052, No Iterations 2
ExecutionTime = 38.5847 s  ClockTime = 38 s

forceCoeffs forces write:
    Cm    = -0.325776
    Cd    = 1.47941
    Cl    = -0.277533
    Cl(f) = -0.464542
    Cl(r) = 0.18701

Time = 47s

smoothSolver:  Solving for Ux, Initial residual = 0.00575282, Final residual = 0.00052809, No Iterations 4
smoothSolver:  Solving for Uy, Initial residual = 0.0278917, Final residual = 0.00172276, No Iterations 4
smoothSolver:  Solving for Uz, Initial residual = 0.0320713, Final residual = 0.00294534, No Iterations 4
GAMG:  Solving for p, Initial residual = 0.0154963, Final residual = 0.0012096, No Iterations 2
time step continuity errors : sum local = 0.00659958, global = -0.000403119, cumulative = 0.00388136
smoothSolver:  Solving for omega, Initial residual = 0.00104622, Final residual = 2.84211e-05, No Iterations 2
smoothSolver:  Solving for k, Initial residual = 0.0165443, Final residual = 0.000675171, No Iterations 2
ExecutionTime = 39.4001 s  ClockTime = 39 s

forceCoeffs forces write:
    Cm    = -0.326414
    Cd    = 1.48067
    Cl    = -0.277642
    Cl(f) = -0.465235
    Cl(r) = 0.187593

Time = 48s

smoothSolver:  Solving for Ux, Initial residual = 0.00576188, Final residual = 0.000525795, No Iterations 4
smoothSolver:  Solving for Uy, Initial residual = 0.0273213, Final residual = 0.00165834, No Iterations 4
smoothSolver:  Solving for Uz, Initial residual = 0.0324553, Final residual = 0.00294517, No Iterations 4
GAMG:  Solving for p, Initial residual = 0.0148384, Final residual = 0.00117344, No Iterations 2
time step continuity errors : sum local = 0.00639779, global = -0.000207122, cumulative = 0.00367424
smoothSolver:  Solving for omega, Initial residual = 0.00101978, Final residual = 2.73689e-05, No Iterations 2
smoothSolver:  Solving for k, Initial residual = 0.0160408, Final residual = 0.000652451, No Iterations 2
ExecutionTime = 40.2148 s  ClockTime = 40 s

forceCoeffs forces write:
    Cm    = -0.327203
    Cd    = 1.48133
    Cl    = -0.276477
    Cl(f) = -0.465442
    Cl(r) = 0.188964

Time = 49s

smoothSolver:  Solving for Ux, Initial residual = 0.0057578, Final residual = 0.000514558, No Iterations 4
smoothSolver:  Solving for Uy, Initial residual = 0.0266901, Final residual = 0.00159076, No Iterations 4
smoothSolver:  Solving for Uz, Initial residual = 0.0325177, Final residual = 0.00290313, No Iterations 4
GAMG:  Solving for p, Initial residual = 0.0141692, Final residual = 0.00114194, No Iterations 2
time step continuity errors : sum local = 0.00622488, global = 0.00015619, cumulative = 0.00383043
smoothSolver:  Solving for omega, Initial residual = 0.00099275, Final residual = 2.62068e-05, No Iterations 2
smoothSolver:  Solving for k, Initial residual = 0.0154863, Final residual = 0.000627331, No Iterations 2
ExecutionTime = 41.0293 s  ClockTime = 41 s

forceCoeffs forces write:
    Cm    = -0.328158
    Cd    = 1.48123
    Cl    = -0.274197
    Cl(f) = -0.465257
    Cl(r) = 0.191059

Time = 50s

smoothSolver:  Solving for Ux, Initial residual = 0.00572531, Final residual = 0.000496111, No Iterations 4
smoothSolver:  Solving for Uy, Initial residual = 0.0261565, Final residual = 0.00152815, No Iterations 4
smoothSolver:  Solving for Uz, Initial residual = 0.032252, Final residual = 0.00283658, No Iterations 4
GAMG:  Solving for p, Initial residual = 0.013513, Final residual = 0.00109299, No Iterations 2
time step continuity errors : sum local = 0.00595635, global = 0.000448897, cumulative = 0.00427932
smoothSolver:  Solving for omega, Initial residual = 0.00096656, Final residual = 2.50407e-05, No Iterations 2
smoothSolver:  Solving for k, Initial residual = 0.0149113, Final residual = 0.000599784, No Iterations 2
ExecutionTime = 41.8442 s  ClockTime = 42 s

forceCoeffs forces write:
    Cm    = -0.329273
    Cd    = 1.47991
    Cl    = -0.270485
    Cl(f) = -0.464516
    Cl(r) = 0.19403

Time = 51s

smoothSolver:  Solving for Ux, Initial residual = 0.00568021, Final residual = 0.000474413, No Iterations 4
smoothSolver:  Solving for Uy, Initial residual = 0.0258278, Final residual = 0.00147791, No Iterations 4
smoothSolver:  Solving for Uz, Initial residual = 0.0318132, Final residual = 0.00277457, No Iterations 4
GAMG:  Solving for p, Initial residual = 0.0128753, Final residual = 0.00109371, No Iterations 2
time step continuity errors : sum local = 0.00594644, global = 0.000271615, cumulative = 0.00455094
smoothSolver:  Solving for omega, Initial residual = 0.000940013, Final residual = 2.39453e-05, No Iterations 2
smoothSolver:  Solving for k, Initial residual = 0.0143428, Final residual = 0.000571275, No Iterations 2
ExecutionTime = 42.6655 s  ClockTime = 43 s

forceCoeffs forces write:
    Cm    = -0.330507
    Cd    = 1.47684
    Cl    = -0.265093
    Cl(f) = -0.463053
    Cl(r) = 0.19796

Time = 52s

smoothSolver:  Solving for Ux, Initial residual = 0.00561868, Final residual = 0.000453991, No Iterations 4
smoothSolver:  Solving for Uy, Initial residual = 0.0255006, Final residual = 0.0014363, No Iterations 4
smoothSolver:  Solving for Uz, Initial residual = 0.0312115, Final residual = 0.00273715, No Iterations 4
GAMG:  Solving for p, Initial residual = 0.0120534, Final residual = 0.00104792, No Iterations 2
time step continuity errors : sum local = 0.00582393, global = 0.000222502, cumulative = 0.00477344
smoothSolver:  Solving for omega, Initial residual = 0.000913872, Final residual = 2.30627e-05, No Iterations 2
smoothSolver:  Solving for k, Initial residual = 0.0138197, Final residual = 0.000543102, No Iterations 2
ExecutionTime = 43.474 s  ClockTime = 43 s

forceCoeffs forces write:
    Cm    = -0.331658
    Cd    = 1.47339
    Cl    = -0.259429
    Cl(f) = -0.461373
    Cl(r) = 0.201944

Time = 53s

smoothSolver:  Solving for Ux, Initial residual = 0.00546286, Final residual = 0.0004362, No Iterations 4
smoothSolver:  Solving for Uy, Initial residual = 0.0248407, Final residual = 0.00138548, No Iterations 4
smoothSolver:  Solving for Uz, Initial residual = 0.0304304, Final residual = 0.00273031, No Iterations 4
GAMG:  Solving for p, Initial residual = 0.0113812, Final residual = 0.000995565, No Iterations 2
time step continuity errors : sum local = 0.00566123, global = 0.000299472, cumulative = 0.00507291
smoothSolver:  Solving for omega, Initial residual = 0.000888073, Final residual = 2.25864e-05, No Iterations 2
smoothSolver:  Solving for k, Initial residual = 0.0133527, Final residual = 0.000516841, No Iterations 2
ExecutionTime = 44.2929 s  ClockTime = 44 s

forceCoeffs forces write:
    Cm    = -0.332735
    Cd    = 1.46983
    Cl    = -0.253891
    Cl(f) = -0.459681
    Cl(r) = 0.205789

Time = 54s

smoothSolver:  Solving for Ux, Initial residual = 0.00527423, Final residual = 0.000421447, No Iterations 4
smoothSolver:  Solving for Uy, Initial residual = 0.0241359, Final residual = 0.00133425, No Iterations 4
smoothSolver:  Solving for Uz, Initial residual = 0.02986, Final residual = 0.00274576, No Iterations 4
GAMG:  Solving for p, Initial residual = 0.0108861, Final residual = 0.000959937, No Iterations 2
time step continuity errors : sum local = 0.00554772, global = 0.000317796, cumulative = 0.00539071
smoothSolver:  Solving for omega, Initial residual = 0.000862752, Final residual = 2.23065e-05, No Iterations 2
smoothSolver:  Solving for k, Initial residual = 0.0129147, Final residual = 0.00049693, No Iterations 2
ExecutionTime = 45.1094 s  ClockTime = 45 s

forceCoeffs forces write:
    Cm    = -0.333634
    Cd    = 1.46618
    Cl    = -0.24845
    Cl(f) = -0.457859
    Cl(r) = 0.209409

Time = 55s

smoothSolver:  Solving for Ux, Initial residual = 0.00509016, Final residual = 0.000411046, No Iterations 4
smoothSolver:  Solving for Uy, Initial residual = 0.0234245, Final residual = 0.00128719, No Iterations 4
smoothSolver:  Solving for Uz, Initial residual = 0.0294915, Final residual = 0.00275126, No Iterations 4
GAMG:  Solving for p, Initial residual = 0.0105196, Final residual = 0.000926968, No Iterations 2
time step continuity errors : sum local = 0.00542906, global = 0.000331843, cumulative = 0.00572255
smoothSolver:  Solving for omega, Initial residual = 0.000836581, Final residual = 2.2046e-05, No Iterations 2
smoothSolver:  Solving for k, Initial residual = 0.0124917, Final residual = 0.000483399, No Iterations 2
ExecutionTime = 45.9274 s  ClockTime = 46 s

forceCoeffs forces write:
    Cm    = -0.334272
    Cd    = 1.46295
    Cl    = -0.243872
    Cl(f) = -0.456208
    Cl(r) = 0.212336

Time = 56s

smoothSolver:  Solving for Ux, Initial residual = 0.0049234, Final residual = 0.000406107, No Iterations 4
smoothSolver:  Solving for Uy, Initial residual = 0.0226211, Final residual = 0.00124593, No Iterations 4
smoothSolver:  Solving for Uz, Initial residual = 0.0290847, Final residual = 0.0027111, No Iterations 4
GAMG:  Solving for p, Initial residual = 0.0102675, Final residual = 0.000902956, No Iterations 2
time step continuity errors : sum local = 0.00534255, global = 0.000328798, cumulative = 0.00605135
smoothSolver:  Solving for omega, Initial residual = 0.000810987, Final residual = 2.17379e-05, No Iterations 2
smoothSolver:  Solving for k, Initial residual = 0.0120805, Final residual = 0.000473606, No Iterations 2
ExecutionTime = 46.7549 s  ClockTime = 47 s

forceCoeffs forces write:
    Cm    = -0.334486
    Cd    = 1.46051
    Cl    = -0.240588
    Cl(f) = -0.45478
    Cl(r) = 0.214192

Time = 57s

smoothSolver:  Solving for Ux, Initial residual = 0.00478855, Final residual = 0.000406407, No Iterations 4
smoothSolver:  Solving for Uy, Initial residual = 0.0218098, Final residual = 0.00121021, No Iterations 4
smoothSolver:  Solving for Uz, Initial residual = 0.0285708, Final residual = 0.00262382, No Iterations 4
GAMG:  Solving for p, Initial residual = 0.0100681, Final residual = 0.000889701, No Iterations 2
time step continuity errors : sum local = 0.00530099, global = 0.000315515, cumulative = 0.00636687
smoothSolver:  Solving for omega, Initial residual = 0.000785166, Final residual = 2.13089e-05, No Iterations 2
smoothSolver:  Solving for k, Initial residual = 0.0116724, Final residual = 0.000464631, No Iterations 2
ExecutionTime = 47.5732 s  ClockTime = 48 s

forceCoeffs forces write:
    Cm    = -0.334253
    Cd    = 1.45915
    Cl    = -0.238996
    Cl(f) = -0.453751
    Cl(r) = 0.214755

Time = 58s

smoothSolver:  Solving for Ux, Initial residual = 0.00469237, Final residual = 0.000406569, No Iterations 4
smoothSolver:  Solving for Uy, Initial residual = 0.0210602, Final residual = 0.00118099, No Iterations 4
smoothSolver:  Solving for Uz, Initial residual = 0.0278911, Final residual = 0.00250747, No Iterations 4
GAMG:  Solving for p, Initial residual = 0.00994436, Final residual = 0.000885362, No Iterations 2
time step continuity errors : sum local = 0.00528699, global = 0.000167025, cumulative = 0.00653389
smoothSolver:  Solving for omega, Initial residual = 0.000758182, Final residual = 2.07256e-05, No Iterations 2
smoothSolver:  Solving for k, Initial residual = 0.0112745, Final residual = 0.000454401, No Iterations 2
ExecutionTime = 48.3961 s  ClockTime = 48 s

forceCoeffs forces write:
    Cm    = -0.33349
    Cd    = 1.45875
    Cl    = -0.239079
    Cl(f) = -0.45303
    Cl(r) = 0.213951

Time = 59s

smoothSolver:  Solving for Ux, Initial residual = 0.00464946, Final residual = 0.000399675, No Iterations 4
smoothSolver:  Solving for Uy, Initial residual = 0.0204622, Final residual = 0.00116166, No Iterations 4
smoothSolver:  Solving for Uz, Initial residual = 0.0271748, Final residual = 0.00238193, No Iterations 4
GAMG:  Solving for p, Initial residual = 0.0098115, Final residual = 0.000877441, No Iterations 2
time step continuity errors : sum local = 0.00524944, global = -7.06885e-05, cumulative = 0.0064632
smoothSolver:  Solving for omega, Initial residual = 0.000731267, Final residual = 1.99975e-05, No Iterations 2
smoothSolver:  Solving for k, Initial residual = 0.0108908, Final residual = 0.000443502, No Iterations 2
ExecutionTime = 49.2104 s  ClockTime = 49 s

forceCoeffs forces write:
    Cm    = -0.332222
    Cd    = 1.45934
    Cl    = -0.241071
    Cl(f) = -0.452758
    Cl(r) = 0.211687

Time = 60s

smoothSolver:  Solving for Ux, Initial residual = 0.00460745, Final residual = 0.000386256, No Iterations 4
smoothSolver:  Solving for Uy, Initial residual = 0.0200643, Final residual = 0.00115328, No Iterations 4
smoothSolver:  Solving for Uz, Initial residual = 0.0264266, Final residual = 0.00226479, No Iterations 4
GAMG:  Solving for p, Initial residual = 0.00964518, Final residual = 0.000871518, No Iterations 2
time step continuity errors : sum local = 0.00521864, global = -0.000357984, cumulative = 0.00610522
smoothSolver:  Solving for omega, Initial residual = 0.000704898, Final residual = 1.91728e-05, No Iterations 2
smoothSolver:  Solving for k, Initial residual = 0.010531, Final residual = 0.0004323, No Iterations 2
ExecutionTime = 50.0224 s  ClockTime = 50 s

forceCoeffs forces write:
    Cm    = -0.330456
    Cd    = 1.46093
    Cl    = -0.244821
    Cl(f) = -0.452867
    Cl(r) = 0.208046

Time = 61s

smoothSolver:  Solving for Ux, Initial residual = 0.00453936, Final residual = 0.000369887, No Iterations 4
smoothSolver:  Solving for Uy, Initial residual = 0.0199635, Final residual = 0.00115551, No Iterations 4
smoothSolver:  Solving for Uz, Initial residual = 0.0256544, Final residual = 0.00216865, No Iterations 4
GAMG:  Solving for p, Initial residual = 0.00948471, Final residual = 0.000866165, No Iterations 2
time step continuity errors : sum local = 0.00518709, global = -0.000445642, cumulative = 0.00565958
smoothSolver:  Solving for omega, Initial residual = 0.000680899, Final residual = 1.83878e-05, No Iterations 2
smoothSolver:  Solving for k, Initial residual = 0.0102143, Final residual = 0.000421025, No Iterations 2
ExecutionTime = 50.8253 s  ClockTime = 51 s

forceCoeffs forces write:
    Cm    = -0.328409
    Cd    = 1.46414
    Cl    = -0.25066
    Cl(f) = -0.453739
    Cl(r) = 0.203079

Time = 62s

smoothSolver:  Solving for Ux, Initial residual = 0.00447639, Final residual = 0.00035433, No Iterations 4
smoothSolver:  Solving for Uy, Initial residual = 0.0201641, Final residual = 0.00116845, No Iterations 4
smoothSolver:  Solving for Uz, Initial residual = 0.024993, Final residual = 0.00210334, No Iterations 4
GAMG:  Solving for p, Initial residual = 0.00938341, Final residual = 0.000890965, No Iterations 2
time step continuity errors : sum local = 0.00529183, global = -0.000374889, cumulative = 0.00528469
smoothSolver:  Solving for omega, Initial residual = 0.000661931, Final residual = 1.77455e-05, No Iterations 2
smoothSolver:  Solving for k, Initial residual = 0.00996215, Final residual = 0.000410988, No Iterations 2
ExecutionTime = 51.6528 s  ClockTime = 52 s

forceCoeffs forces write:
    Cm    = -0.326423
    Cd    = 1.46817
    Cl    = -0.257406
    Cl(f) = -0.455126
    Cl(r) = 0.19772

Time = 63s

smoothSolver:  Solving for Ux, Initial residual = 0.00438668, Final residual = 0.000343709, No Iterations 4
smoothSolver:  Solving for Uy, Initial residual = 0.0203207, Final residual = 0.00118603, No Iterations 4
smoothSolver:  Solving for Uz, Initial residual = 0.0243453, Final residual = 0.00206394, No Iterations 4
GAMG:  Solving for p, Initial residual = 0.00939385, Final residual = 0.000918239, No Iterations 2
time step continuity errors : sum local = 0.00538311, global = -0.000366175, cumulative = 0.00491851
smoothSolver:  Solving for omega, Initial residual = 0.000647721, Final residual = 1.73157e-05, No Iterations 2
smoothSolver:  Solving for k, Initial residual = 0.00978856, Final residual = 0.000403038, No Iterations 2
ExecutionTime = 52.462 s  ClockTime = 53 s

forceCoeffs forces write:
    Cm    = -0.324833
    Cd    = 1.47186
    Cl    = -0.263841
    Cl(f) = -0.456753
    Cl(r) = 0.192912

Time = 64s

smoothSolver:  Solving for Ux, Initial residual = 0.00428109, Final residual = 0.000338904, No Iterations 4
smoothSolver:  Solving for Uy, Initial residual = 0.0203763, Final residual = 0.00120792, No Iterations 4
smoothSolver:  Solving for Uz, Initial residual = 0.0238467, Final residual = 0.00205668, No Iterations 4
GAMG:  Solving for p, Initial residual = 0.0094139, Final residual = 0.000404637, No Iterations 3
time step continuity errors : sum local = 0.00234507, global = -9.95809e-05, cumulative = 0.00481893
smoothSolver:  Solving for omega, Initial residual = 0.000641371, Final residual = 1.72854e-05, No Iterations 2
smoothSolver:  Solving for k, Initial residual = 0.00969752, Final residual = 0.000396363, No Iterations 2
ExecutionTime = 53.2945 s  ClockTime = 53 s

forceCoeffs forces write:
    Cm    = -0.323497
    Cd    = 1.47799
    Cl    = -0.272248
    Cl(f) = -0.459621
    Cl(r) = 0.187373

Time = 65s

smoothSolver:  Solving for Ux, Initial residual = 0.00427449, Final residual = 0.000343, No Iterations 4
smoothSolver:  Solving for Uy, Initial residual = 0.0208479, Final residual = 0.00126459, No Iterations 4
smoothSolver:  Solving for Uz, Initial residual = 0.0242634, Final residual = 0.00212966, No Iterations 4
GAMG:  Solving for p, Initial residual = 0.00928451, Final residual = 0.000835929, No Iterations 2
time step continuity errors : sum local = 0.00474602, global = -0.000164181, cumulative = 0.00465475
smoothSolver:  Solving for omega, Initial residual = 0.000634465, Final residual = 1.74365e-05, No Iterations 2
smoothSolver:  Solving for k, Initial residual = 0.00965559, Final residual = 0.000392591, No Iterations 2
ExecutionTime = 54.1064 s  ClockTime = 54 s

forceCoeffs forces write:
    Cm    = -0.32308
    Cd    = 1.4797
    Cl    = -0.275485
    Cl(f) = -0.460822
    Cl(r) = 0.185337

Time = 66s

smoothSolver:  Solving for Ux, Initial residual = 0.00414009, Final residual = 0.000347854, No Iterations 4
smoothSolver:  Solving for Uy, Initial residual = 0.0202186, Final residual = 0.00126269, No Iterations 4
smoothSolver:  Solving for Uz, Initial residual = 0.0232943, Final residual = 0.00214532, No Iterations 4
GAMG:  Solving for p, Initial residual = 0.00952857, Final residual = 0.000403223, No Iterations 3
time step continuity errors : sum local = 0.00228516, global = -3.36263e-05, cumulative = 0.00462112
smoothSolver:  Solving for omega, Initial residual = 0.000630289, Final residual = 1.77278e-05, No Iterations 2
smoothSolver:  Solving for k, Initial residual = 0.00962918, Final residual = 0.000393364, No Iterations 2
ExecutionTime = 54.9457 s  ClockTime = 55 s

forceCoeffs forces write:
    Cm    = -0.322872
    Cd    = 1.48314
    Cl    = -0.279825
    Cl(f) = -0.462784
    Cl(r) = 0.182959

Time = 67s

smoothSolver:  Solving for Ux, Initial residual = 0.00414427, Final residual = 0.000357235, No Iterations 4
smoothSolver:  Solving for Uy, Initial residual = 0.0206258, Final residual = 0.0013025, No Iterations 4
smoothSolver:  Solving for Uz, Initial residual = 0.0240647, Final residual = 0.0022631, No Iterations 4
GAMG:  Solving for p, Initial residual = 0.00911773, Final residual = 0.000859109, No Iterations 2
time step continuity errors : sum local = 0.00485929, global = -0.000195007, cumulative = 0.00442612
smoothSolver:  Solving for omega, Initial residual = 0.000623754, Final residual = 1.79442e-05, No Iterations 2
smoothSolver:  Solving for k, Initial residual = 0.00960612, Final residual = 0.000399667, No Iterations 2
ExecutionTime = 55.7608 s  ClockTime = 56 s

forceCoeffs forces write:
    Cm    = -0.323177
    Cd    = 1.48486
    Cl    = -0.281446
    Cl(f) = -0.4639
    Cl(r) = 0.182454

Time = 68s

smoothSolver:  Solving for Ux, Initial residual = 0.00407769, Final residual = 0.000367692, No Iterations 4
smoothSolver:  Solving for Uy, Initial residual = 0.0198739, Final residual = 0.00128167, No Iterations 4
smoothSolver:  Solving for Uz, Initial residual = 0.0235531, Final residual = 0.00230557, No Iterations 4
GAMG:  Solving for p, Initial residual = 0.00949572, Final residual = 0.000396521, No Iterations 3
time step continuity errors : sum local = 0.0022378, global = -8.13508e-05, cumulative = 0.00434477
smoothSolver:  Solving for omega, Initial residual = 0.000617484, Final residual = 1.80699e-05, No Iterations 2
smoothSolver:  Solving for k, Initial residual = 0.00956641, Final residual = 0.000405279, No Iterations 2
ExecutionTime = 56.5889 s  ClockTime = 57 s

forceCoeffs forces write:
    Cm    = -0.323831
    Cd    = 1.48696
    Cl    = -0.282822
    Cl(f) = -0.465242
    Cl(r) = 0.18242

Time = 69s

smoothSolver:  Solving for Ux, Initial residual = 0.00411525, Final residual = 0.000379449, No Iterations 4
smoothSolver:  Solving for Uy, Initial residual = 0.0200732, Final residual = 0.00128965, No Iterations 4
smoothSolver:  Solving for Uz, Initial residual = 0.0244469, Final residual = 0.00239117, No Iterations 4
GAMG:  Solving for p, Initial residual = 0.00905688, Final residual = 0.000846315, No Iterations 2
time step continuity errors : sum local = 0.00476507, global = -0.000228283, cumulative = 0.00411648
smoothSolver:  Solving for omega, Initial residual = 0.00060824, Final residual = 1.79713e-05, No Iterations 2
smoothSolver:  Solving for k, Initial residual = 0.00950019, Final residual = 0.000407916, No Iterations 2
ExecutionTime = 57.4069 s  ClockTime = 58 s

forceCoeffs forces write:
    Cm    = -0.324699
    Cd    = 1.48768
    Cl    = -0.282441
    Cl(f) = -0.46592
    Cl(r) = 0.183478

Time = 70s

smoothSolver:  Solving for Ux, Initial residual = 0.00410975, Final residual = 0.000387896, No Iterations 4
smoothSolver:  Solving for Uy, Initial residual = 0.0193675, Final residual = 0.0012462, No Iterations 4
smoothSolver:  Solving for Uz, Initial residual = 0.0240844, Final residual = 0.00237743, No Iterations 4
GAMG:  Solving for p, Initial residual = 0.00930518, Final residual = 0.000387789, No Iterations 3
time step continuity errors : sum local = 0.00217979, global = 2.00347e-06, cumulative = 0.00411849
smoothSolver:  Solving for omega, Initial residual = 0.000599417, Final residual = 1.77317e-05, No Iterations 2
smoothSolver:  Solving for k, Initial residual = 0.00942344, Final residual = 0.000409509, No Iterations 2
ExecutionTime = 58.2337 s  ClockTime = 58 s

forceCoeffs forces write:
    Cm    = -0.326038
    Cd    = 1.48749
    Cl    = -0.280617
    Cl(f) = -0.466347
    Cl(r) = 0.18573

Time = 71s

smoothSolver:  Solving for Ux, Initial residual = 0.00422366, Final residual = 0.000391683, No Iterations 4
smoothSolver:  Solving for Uy, Initial residual = 0.0196443, Final residual = 0.00123551, No Iterations 4
smoothSolver:  Solving for Uz, Initial residual = 0.0248399, Final residual = 0.00237985, No Iterations 4
GAMG:  Solving for p, Initial residual = 0.00877261, Final residual = 0.000816557, No Iterations 2
time step continuity errors : sum local = 0.00457913, global = 8.37825e-05, cumulative = 0.00420227
smoothSolver:  Solving for omega, Initial residual = 0.000589807, Final residual = 1.7328e-05, No Iterations 2
smoothSolver:  Solving for k, Initial residual = 0.00934969, Final residual = 0.000410116, No Iterations 2
ExecutionTime = 59.0546 s  ClockTime = 59 s

forceCoeffs forces write:
    Cm    = -0.327314
    Cd    = 1.4867
    Cl    = -0.278084
    Cl(f) = -0.466356
    Cl(r) = 0.188272

Time = 72s

smoothSolver:  Solving for Ux, Initial residual = 0.0042661, Final residual = 0.000390181, No Iterations 4
smoothSolver:  Solving for Uy, Initial residual = 0.0192584, Final residual = 0.00118634, No Iterations 4
smoothSolver:  Solving for Uz, Initial residual = 0.0243794, Final residual = 0.00232011, No Iterations 4
GAMG:  Solving for p, Initial residual = 0.0088638, Final residual = 0.000372056, No Iterations 3
time step continuity errors : sum local = 0.00208611, global = 0.000151784, cumulative = 0.00435405
smoothSolver:  Solving for omega, Initial residual = 0.000583647, Final residual = 1.68964e-05, No Iterations 2
smoothSolver:  Solving for k, Initial residual = 0.0093122, Final residual = 0.00041015, No Iterations 2
ExecutionTime = 59.8924 s  ClockTime = 60 s

forceCoeffs forces write:
    Cm    = -0.3291
    Cd    = 1.48307
    Cl    = -0.27267
    Cl(f) = -0.465435
    Cl(r) = 0.192765

Time = 73s

smoothSolver:  Solving for Ux, Initial residual = 0.00443377, Final residual = 0.000387392, No Iterations 4
smoothSolver:  Solving for Uy, Initial residual = 0.0201086, Final residual = 0.00118889, No Iterations 4
smoothSolver:  Solving for Uz, Initial residual = 0.0250401, Final residual = 0.00229691, No Iterations 4
GAMG:  Solving for p, Initial residual = 0.00830028, Final residual = 0.000787238, No Iterations 2
time step continuity errors : sum local = 0.00444816, global = 0.000319055, cumulative = 0.00467311
smoothSolver:  Solving for omega, Initial residual = 0.00057932, Final residual = 1.6475e-05, No Iterations 2
smoothSolver:  Solving for k, Initial residual = 0.00932974, Final residual = 0.0004099, No Iterations 2
ExecutionTime = 60.7047 s  ClockTime = 60 s

forceCoeffs forces write:
    Cm    = -0.330517
    Cd    = 1.48065
    Cl    = -0.268148
    Cl(f) = -0.464591
    Cl(r) = 0.196443

Time = 74s

smoothSolver:  Solving for Ux, Initial residual = 0.00444447, Final residual = 0.000384229, No Iterations 4
smoothSolver:  Solving for Uy, Initial residual = 0.0199869, Final residual = 0.00115887, No Iterations 4
smoothSolver:  Solving for Uz, Initial residual = 0.0244077, Final residual = 0.00225654, No Iterations 4
GAMG:  Solving for p, Initial residual = 0.00842788, Final residual = 0.000386615, No Iterations 3
time step continuity errors : sum local = 0.00219716, global = 9.55796e-05, cumulative = 0.00476869
smoothSolver:  Solving for omega, Initial residual = 0.000582914, Final residual = 1.62918e-05, No Iterations 2
smoothSolver:  Solving for k, Initial residual = 0.00940726, Final residual = 0.000409703, No Iterations 2
ExecutionTime = 61.5377 s  ClockTime = 61 s

forceCoeffs forces write:
    Cm    = -0.332254
    Cd    = 1.47306
    Cl    = -0.259325
    Cl(f) = -0.461917
    Cl(r) = 0.202591

Time = 75s

smoothSolver:  Solving for Ux, Initial residual = 0.00457317, Final residual = 0.000384885, No Iterations 4
smoothSolver:  Solving for Uy, Initial residual = 0.0209918, Final residual = 0.00120031, No Iterations 4
smoothSolver:  Solving for Uz, Initial residual = 0.0253352, Final residual = 0.00230551, No Iterations 4
GAMG:  Solving for p, Initial residual = 0.00793873, Final residual = 0.000753736, No Iterations 2
time step continuity errors : sum local = 0.0044035, global = 0.000241371, cumulative = 0.00501006
smoothSolver:  Solving for omega, Initial residual = 0.000589924, Final residual = 1.63845e-05, No Iterations 2
smoothSolver:  Solving for k, Initial residual = 0.00956486, Final residual = 0.000409324, No Iterations 2
ExecutionTime = 62.3509 s  ClockTime = 62 s

forceCoeffs forces write:
    Cm    = -0.33344
    Cd    = 1.47033
    Cl    = -0.254331
    Cl(f) = -0.460606
    Cl(r) = 0.206275

Time = 76s

smoothSolver:  Solving for Ux, Initial residual = 0.00453066, Final residual = 0.000385218, No Iterations 4
smoothSolver:  Solving for Uy, Initial residual = 0.0206998, Final residual = 0.00118391, No Iterations 4
smoothSolver:  Solving for Uz, Initial residual = 0.0246895, Final residual = 0.00232901, No Iterations 4
GAMG:  Solving for p, Initial residual = 0.00828169, Final residual = 0.000383598, No Iterations 3
time step continuity errors : sum local = 0.00224655, global = 9.37702e-05, cumulative = 0.00510383
smoothSolver:  Solving for omega, Initial residual = 0.000600932, Final residual = 1.68686e-05, No Iterations 2
smoothSolver:  Solving for k, Initial residual = 0.00974611, Final residual = 0.00041093, No Iterations 2
ExecutionTime = 63.1734 s  ClockTime = 63 s

forceCoeffs forces write:
    Cm    = -0.334983
    Cd    = 1.46365
    Cl    = -0.245786
    Cl(f) = -0.457876
    Cl(r) = 0.21209

Time = 77s

smoothSolver:  Solving for Ux, Initial residual = 0.00461472, Final residual = 0.000389994, No Iterations 4
smoothSolver:  Solving for Uy, Initial residual = 0.0215524, Final residual = 0.00123883, No Iterations 4
smoothSolver:  Solving for Uz, Initial residual = 0.0258352, Final residual = 0.00246634, No Iterations 4
GAMG:  Solving for p, Initial residual = 0.00812982, Final residual = 0.000786061, No Iterations 2
time step continuity errors : sum local = 0.00463689, global = 0.000371039, cumulative = 0.00547487
smoothSolver:  Solving for omega, Initial residual = 0.000608618, Final residual = 1.75067e-05, No Iterations 2
smoothSolver:  Solving for k, Initial residual = 0.00993126, Final residual = 0.000417218, No Iterations 2
ExecutionTime = 63.9922 s  ClockTime = 64 s

forceCoeffs forces write:
    Cm    = -0.335903
    Cd    = 1.46062
    Cl    = -0.240877
    Cl(f) = -0.456341
    Cl(r) = 0.215464

Time = 78s

smoothSolver:  Solving for Ux, Initial residual = 0.00457339, Final residual = 0.000395397, No Iterations 4
smoothSolver:  Solving for Uy, Initial residual = 0.0210974, Final residual = 0.00122519, No Iterations 4
smoothSolver:  Solving for Uz, Initial residual = 0.0254188, Final residual = 0.00251358, No Iterations 4
GAMG:  Solving for p, Initial residual = 0.00860012, Final residual = 0.000370929, No Iterations 3
time step continuity errors : sum local = 0.0021946, global = 0.000131919, cumulative = 0.00560679
smoothSolver:  Solving for omega, Initial residual = 0.000616664, Final residual = 1.81979e-05, No Iterations 2
smoothSolver:  Solving for k, Initial residual = 0.0100858, Final residual = 0.000428694, No Iterations 2
ExecutionTime = 64.8299 s  ClockTime = 65 s

forceCoeffs forces write:
    Cm    = -0.336672
    Cd    = 1.45436
    Cl    = -0.233647
    Cl(f) = -0.453496
    Cl(r) = 0.219848

Time = 79s

smoothSolver:  Solving for Ux, Initial residual = 0.00462351, Final residual = 0.000407318, No Iterations 4
smoothSolver:  Solving for Uy, Initial residual = 0.0217827, Final residual = 0.0012764, No Iterations 4
smoothSolver:  Solving for Uz, Initial residual = 0.0266081, Final residual = 0.0026236, No Iterations 4
GAMG:  Solving for p, Initial residual = 0.00835376, Final residual = 0.000761539, No Iterations 2
time step continuity errors : sum local = 0.00456901, global = 0.000260544, cumulative = 0.00586733
smoothSolver:  Solving for omega, Initial residual = 0.00061895, Final residual = 1.8695e-05, No Iterations 2
smoothSolver:  Solving for k, Initial residual = 0.01021, Final residual = 0.000443067, No Iterations 2
ExecutionTime = 65.6386 s  ClockTime = 65 s

forceCoeffs forces write:
    Cm    = -0.336811
    Cd    = 1.45263
    Cl    = -0.230955
    Cl(f) = -0.452288
    Cl(r) = 0.221333

Time = 80s

smoothSolver:  Solving for Ux, Initial residual = 0.00459155, Final residual = 0.00041802, No Iterations 4
smoothSolver:  Solving for Uy, Initial residual = 0.0210736, Final residual = 0.00125015, No Iterations 4
smoothSolver:  Solving for Uz, Initial residual = 0.0260907, Final residual = 0.00260144, No Iterations 4
GAMG:  Solving for p, Initial residual = 0.00880776, Final residual = 0.000871869, No Iterations 2
time step continuity errors : sum local = 0.00524297, global = 0.000164532, cumulative = 0.00603186
smoothSolver:  Solving for omega, Initial residual = 0.000616178, Final residual = 1.8922e-05, No Iterations 2
smoothSolver:  Solving for k, Initial residual = 0.0102752, Final residual = 0.00045559, No Iterations 2
ExecutionTime = 66.4607 s  ClockTime = 66 s

forceCoeffs forces write:
    Cm    = -0.336569
    Cd    = 1.45123
    Cl    = -0.229117
    Cl(f) = -0.451128
    Cl(r) = 0.222011

Time = 81s

smoothSolver:  Solving for Ux, Initial residual = 0.00463676, Final residual = 0.000429256, No Iterations 4
smoothSolver:  Solving for Uy, Initial residual = 0.0210845, Final residual = 0.00125731, No Iterations 4
smoothSolver:  Solving for Uz, Initial residual = 0.0263489, Final residual = 0.00258575, No Iterations 4
GAMG:  Solving for p, Initial residual = 0.00893348, Final residual = 0.000877743, No Iterations 2
time step continuity errors : sum local = 0.00528689, global = -4.22804e-05, cumulative = 0.00598958
smoothSolver:  Solving for omega, Initial residual = 0.000609818, Final residual = 1.89599e-05, No Iterations 2
smoothSolver:  Solving for k, Initial residual = 0.0102882, Final residual = 0.000464114, No Iterations 2
ExecutionTime = 67.2729 s  ClockTime = 67 s

forceCoeffs forces write:
    Cm    = -0.335849
    Cd    = 1.45049
    Cl    = -0.228901
    Cl(f) = -0.450299
    Cl(r) = 0.221398

Time = 82s

smoothSolver:  Solving for Ux, Initial residual = 0.00470782, Final residual = 0.000434139, No Iterations 4
smoothSolver:  Solving for Uy, Initial residual = 0.0209633, Final residual = 0.00126638, No Iterations 4
smoothSolver:  Solving for Uz, Initial residual = 0.026432, Final residual = 0.00254773, No Iterations 4
GAMG:  Solving for p, Initial residual = 0.00899896, Final residual = 0.000863792, No Iterations 2
time step continuity errors : sum local = 0.00520723, global = -0.000303336, cumulative = 0.00568625
smoothSolver:  Solving for omega, Initial residual = 0.000601298, Final residual = 1.8782e-05, No Iterations 2
smoothSolver:  Solving for k, Initial residual = 0.010258, Final residual = 0.000468606, No Iterations 2
ExecutionTime = 68.0833 s  ClockTime = 68 s

forceCoeffs forces write:
    Cm    = -0.334563
    Cd    = 1.45048
    Cl    = -0.230363
    Cl(f) = -0.449744
    Cl(r) = 0.219381

Time = 83s

smoothSolver:  Solving for Ux, Initial residual = 0.00478058, Final residual = 0.000431298, No Iterations 4
smoothSolver:  Solving for Uy, Initial residual = 0.020887, Final residual = 0.00127916, No Iterations 4
smoothSolver:  Solving for Uz, Initial residual = 0.0263623, Final residual = 0.0024965, No Iterations 4
GAMG:  Solving for p, Initial residual = 0.00904484, Final residual = 0.000847294, No Iterations 2
time step continuity errors : sum local = 0.00510579, global = -0.000492007, cumulative = 0.00519424
smoothSolver:  Solving for omega, Initial residual = 0.000591552, Final residual = 1.84244e-05, No Iterations 2
smoothSolver:  Solving for k, Initial residual = 0.0101945, Final residual = 0.000468814, No Iterations 2
ExecutionTime = 68.8968 s  ClockTime = 69 s

forceCoeffs forces write:
    Cm    = -0.332856
    Cd    = 1.45176
    Cl    = -0.233909
    Cl(f) = -0.449811
    Cl(r) = 0.215902

Time = 84s

[...]
smoothSolver:  Solving for omega, Initial residual = 0.00052278, Final residual = 1.73279e-05, No Iterations 2
smoothSolver:  Solving for k, Initial residual = 0.00869243, Final residual = 0.000406153, No Iterations 2
ExecutionTime = 815.352 s  ClockTime = 815 s

forceCoeffs forces write:
    Cm    = -0.329017
    Cd    = 1.46978
    Cl    = -0.275696
    Cl(f) = -0.466865
    Cl(r) = 0.191169

Time = 980s

smoothSolver:  Solving for Ux, Initial residual = 0.0042256, Final residual = 0.00041509, No Iterations 4
smoothSolver:  Solving for Uy, Initial residual = 0.0194406, Final residual = 0.00129404, No Iterations 4
smoothSolver:  Solving for Uz, Initial residual = 0.0248067, Final residual = 0.00153445, No Iterations 5
GAMG:  Solving for p, Initial residual = 0.00825667, Final residual = 0.000761733, No Iterations 2
time step continuity errors : sum local = 0.00423629, global = 0.000128038, cumulative = 0.00472005
smoothSolver:  Solving for omega, Initial residual = 0.000515849, Final residual = 1.69183e-05, No Iterations 2
smoothSolver:  Solving for k, Initial residual = 0.0085708, Final residual = 0.000402459, No Iterations 2
ExecutionTime = 816.189 s  ClockTime = 816 s

forceCoeffs forces write:
    Cm    = -0.33011
    Cd    = 1.46936
    Cl    = -0.273834
    Cl(f) = -0.467026
    Cl(r) = 0.193193

Time = 981s

smoothSolver:  Solving for Ux, Initial residual = 0.00424743, Final residual = 0.00041278, No Iterations 4
smoothSolver:  Solving for Uy, Initial residual = 0.0189913, Final residual = 0.00124812, No Iterations 4
smoothSolver:  Solving for Uz, Initial residual = 0.0242857, Final residual = 0.00149567, No Iterations 5
GAMG:  Solving for p, Initial residual = 0.00838882, Final residual = 0.00082956, No Iterations 2
time step continuity errors : sum local = 0.00461442, global = 0.000314376, cumulative = 0.00503443
smoothSolver:  Solving for omega, Initial residual = 0.000509106, Final residual = 1.63921e-05, No Iterations 2
smoothSolver:  Solving for k, Initial residual = 0.00844664, Final residual = 0.000397583, No Iterations 2
ExecutionTime = 817.036 s  ClockTime = 817 s

forceCoeffs forces write:
    Cm    = -0.331555
    Cd    = 1.4678
    Cl    = -0.27058
    Cl(f) = -0.466845
    Cl(r) = 0.196265

Time = 982s

smoothSolver:  Solving for Ux, Initial residual = 0.00431484, Final residual = 0.000406791, No Iterations 4
smoothSolver:  Solving for Uy, Initial residual = 0.0193468, Final residual = 0.00122878, No Iterations 4
smoothSolver:  Solving for Uz, Initial residual = 0.024305, Final residual = 0.00238851, No Iterations 4
GAMG:  Solving for p, Initial residual = 0.00823544, Final residual = 0.000360131, No Iterations 3
time step continuity errors : sum local = 0.00201249, global = 5.391e-05, cumulative = 0.00508834
smoothSolver:  Solving for omega, Initial residual = 0.000505191, Final residual = 1.58965e-05, No Iterations 2
smoothSolver:  Solving for k, Initial residual = 0.00834677, Final residual = 0.000392122, No Iterations 2
ExecutionTime = 817.884 s  ClockTime = 818 s

forceCoeffs forces write:
    Cm    = -0.333267
    Cd    = 1.46339
    Cl    = -0.263718
    Cl(f) = -0.465126
    Cl(r) = 0.201408

Time = 983s

smoothSolver:  Solving for Ux, Initial residual = 0.0043923, Final residual = 0.000398639, No Iterations 4
smoothSolver:  Solving for Uy, Initial residual = 0.0199572, Final residual = 0.00123268, No Iterations 4
smoothSolver:  Solving for Uz, Initial residual = 0.0250417, Final residual = 0.00241005, No Iterations 4
GAMG:  Solving for p, Initial residual = 0.00755488, Final residual = 0.000686259, No Iterations 2
time step continuity errors : sum local = 0.00394704, global = 0.000125023, cumulative = 0.00521336
smoothSolver:  Solving for omega, Initial residual = 0.000502644, Final residual = 1.55062e-05, No Iterations 2
smoothSolver:  Solving for k, Initial residual = 0.00830251, Final residual = 0.000386774, No Iterations 2
ExecutionTime = 818.715 s  ClockTime = 818 s

forceCoeffs forces write:
    Cm    = -0.334394
    Cd    = 1.46164
    Cl    = -0.260099
    Cl(f) = -0.464443
    Cl(r) = 0.204344

Time = 984s

smoothSolver:  Solving for Ux, Initial residual = 0.00430945, Final residual = 0.000393683, No Iterations 4
smoothSolver:  Solving for Uy, Initial residual = 0.0194541, Final residual = 0.00119282, No Iterations 4
smoothSolver:  Solving for Uz, Initial residual = 0.0242075, Final residual = 0.00237608, No Iterations 4
GAMG:  Solving for p, Initial residual = 0.00763914, Final residual = 0.000348644, No Iterations 3
time step continuity errors : sum local = 0.00200775, global = 0.000100394, cumulative = 0.00531375
smoothSolver:  Solving for omega, Initial residual = 0.000505978, Final residual = 1.54426e-05, No Iterations 2
smoothSolver:  Solving for k, Initial residual = 0.00831654, Final residual = 0.00038181, No Iterations 2
ExecutionTime = 819.597 s  ClockTime = 819 s

forceCoeffs forces write:
    Cm    = -0.336022
    Cd    = 1.45651
    Cl    = -0.253264
    Cl(f) = -0.462654
    Cl(r) = 0.20939

Time = 985s

smoothSolver:  Solving for Ux, Initial residual = 0.00436448, Final residual = 0.000390888, No Iterations 4
smoothSolver:  Solving for Uy, Initial residual = 0.0201406, Final residual = 0.0012234, No Iterations 4
smoothSolver:  Solving for Uz, Initial residual = 0.0249033, Final residual = 0.00242953, No Iterations 4
GAMG:  Solving for p, Initial residual = 0.00736586, Final residual = 0.000714067, No Iterations 2
time step continuity errors : sum local = 0.00413573, global = 0.000290071, cumulative = 0.00560383
smoothSolver:  Solving for omega, Initial residual = 0.000510993, Final residual = 1.57087e-05, No Iterations 2
smoothSolver:  Solving for k, Initial residual = 0.0083822, Final residual = 0.00037891, No Iterations 2
ExecutionTime = 820.462 s  ClockTime = 820 s

forceCoeffs forces write:
    Cm    = -0.337072
    Cd    = 1.45371
    Cl    = -0.248877
    Cl(f) = -0.461511
    Cl(r) = 0.212634

Time = 986s

smoothSolver:  Solving for Ux, Initial residual = 0.00431106, Final residual = 0.000388424, No Iterations 4
smoothSolver:  Solving for Uy, Initial residual = 0.0197313, Final residual = 0.00120622, No Iterations 4
smoothSolver:  Solving for Uz, Initial residual = 0.0242626, Final residual = 0.00150996, No Iterations 5
GAMG:  Solving for p, Initial residual = 0.00765789, Final residual = 0.000333939, No Iterations 3
time step continuity errors : sum local = 0.0019449, global = 0.000114292, cumulative = 0.00571812
smoothSolver:  Solving for omega, Initial residual = 0.000519259, Final residual = 1.62161e-05, No Iterations 2
smoothSolver:  Solving for k, Initial residual = 0.00845047, Final residual = 0.000379553, No Iterations 2
ExecutionTime = 821.363 s  ClockTime = 821 s

forceCoeffs forces write:
    Cm    = -0.338281
    Cd    = 1.4474
    Cl    = -0.241451
    Cl(f) = -0.459006
    Cl(r) = 0.217555

Time = 987s

smoothSolver:  Solving for Ux, Initial residual = 0.0043531, Final residual = 0.00039198, No Iterations 4
smoothSolver:  Solving for Uy, Initial residual = 0.0202842, Final residual = 0.0012541, No Iterations 4
smoothSolver:  Solving for Uz, Initial residual = 0.0248108, Final residual = 0.0015482, No Iterations 5
GAMG:  Solving for p, Initial residual = 0.00748085, Final residual = 0.000694985, No Iterations 2
time step continuity errors : sum local = 0.00411535, global = 0.000289418, cumulative = 0.00600754
smoothSolver:  Solving for omega, Initial residual = 0.000522636, Final residual = 1.66338e-05, No Iterations 2
smoothSolver:  Solving for k, Initial residual = 0.00852253, Final residual = 0.000384564, No Iterations 2
ExecutionTime = 822.229 s  ClockTime = 822 s

forceCoeffs forces write:
    Cm    = -0.338729
    Cd    = 1.44543
    Cl    = -0.238328
    Cl(f) = -0.457893
    Cl(r) = 0.219565

Time = 988s

smoothSolver:  Solving for Ux, Initial residual = 0.00428135, Final residual = 0.000392385, No Iterations 4
smoothSolver:  Solving for Uy, Initial residual = 0.0197453, Final residual = 0.00122912, No Iterations 4
smoothSolver:  Solving for Uz, Initial residual = 0.0241438, Final residual = 0.00154551, No Iterations 5
GAMG:  Solving for p, Initial residual = 0.00784659, Final residual = 0.000336144, No Iterations 3
time step continuity errors : sum local = 0.00199433, global = 4.25537e-05, cumulative = 0.00605009
smoothSolver:  Solving for omega, Initial residual = 0.000524306, Final residual = 1.69517e-05, No Iterations 2
smoothSolver:  Solving for k, Initial residual = 0.00857011, Final residual = 0.000392152, No Iterations 2
ExecutionTime = 823.085 s  ClockTime = 823 s

forceCoeffs forces write:
    Cm    = -0.339072
    Cd    = 1.44126
    Cl    = -0.233741
    Cl(f) = -0.455942
    Cl(r) = 0.222201

Time = 989s

smoothSolver:  Solving for Ux, Initial residual = 0.00430099, Final residual = 0.000397115, No Iterations 4
smoothSolver:  Solving for Uy, Initial residual = 0.0202772, Final residual = 0.00126011, No Iterations 4
smoothSolver:  Solving for Uz, Initial residual = 0.0249805, Final residual = 0.00156972, No Iterations 5
GAMG:  Solving for p, Initial residual = 0.00757026, Final residual = 0.000672163, No Iterations 2
time step continuity errors : sum local = 0.00401419, global = 0.000225914, cumulative = 0.006276
smoothSolver:  Solving for omega, Initial residual = 0.000520984, Final residual = 1.70955e-05, No Iterations 2
smoothSolver:  Solving for k, Initial residual = 0.00859091, Final residual = 0.000399673, No Iterations 2
ExecutionTime = 823.939 s  ClockTime = 824 s

forceCoeffs forces write:
    Cm    = -0.338823
    Cd    = 1.44
    Cl    = -0.232428
    Cl(f) = -0.455037
    Cl(r) = 0.222609

Time = 990s

smoothSolver:  Solving for Ux, Initial residual = 0.00424134, Final residual = 0.000402403, No Iterations 4
smoothSolver:  Solving for Uy, Initial residual = 0.0195367, Final residual = 0.00122492, No Iterations 4
smoothSolver:  Solving for Uz, Initial residual = 0.0243382, Final residual = 0.00152959, No Iterations 5
GAMG:  Solving for p, Initial residual = 0.00792148, Final residual = 0.000759319, No Iterations 2
time step continuity errors : sum local = 0.00454086, global = 0.00014286, cumulative = 0.00641886
smoothSolver:  Solving for omega, Initial residual = 0.000515123, Final residual = 1.70395e-05, No Iterations 2
smoothSolver:  Solving for k, Initial residual = 0.00857497, Final residual = 0.000404821, No Iterations 2
ExecutionTime = 824.802 s  ClockTime = 825 s

forceCoeffs forces write:
    Cm    = -0.338237
    Cd    = 1.43916
    Cl    = -0.232032
    Cl(f) = -0.454253
    Cl(r) = 0.222221

Time = 991s

smoothSolver:  Solving for Ux, Initial residual = 0.00425031, Final residual = 0.00040652, No Iterations 4
smoothSolver:  Solving for Uy, Initial residual = 0.0194554, Final residual = 0.00121749, No Iterations 4
smoothSolver:  Solving for Uz, Initial residual = 0.0243322, Final residual = 0.00148698, No Iterations 5
GAMG:  Solving for p, Initial residual = 0.00795678, Final residual = 0.000769673, No Iterations 2
time step continuity errors : sum local = 0.00460713, global = -5.16229e-05, cumulative = 0.00636724
smoothSolver:  Solving for omega, Initial residual = 0.000507076, Final residual = 1.67928e-05, No Iterations 2
smoothSolver:  Solving for k, Initial residual = 0.00853658, Final residual = 0.000407184, No Iterations 2
ExecutionTime = 825.687 s  ClockTime = 825 s

forceCoeffs forces write:
    Cm    = -0.337235
    Cd    = 1.439
    Cl    = -0.232973
    Cl(f) = -0.453721
    Cl(r) = 0.220749

Time = 992s

smoothSolver:  Solving for Ux, Initial residual = 0.00428579, Final residual = 0.000404247, No Iterations 4
smoothSolver:  Solving for Uy, Initial residual = 0.0192921, Final residual = 0.00121132, No Iterations 4
smoothSolver:  Solving for Uz, Initial residual = 0.0241849, Final residual = 0.00236228, No Iterations 4
GAMG:  Solving for p, Initial residual = 0.00795324, Final residual = 0.000773487, No Iterations 2
time step continuity errors : sum local = 0.00463155, global = -0.000299439, cumulative = 0.0060678
smoothSolver:  Solving for omega, Initial residual = 0.000496726, Final residual = 1.63462e-05, No Iterations 2
smoothSolver:  Solving for k, Initial residual = 0.00848585, Final residual = 0.000407263, No Iterations 2
ExecutionTime = 826.636 s  ClockTime = 826 s

forceCoeffs forces write:
    Cm    = -0.335773
    Cd    = 1.43959
    Cl    = -0.235413
    Cl(f) = -0.453479
    Cl(r) = 0.218066

Time = 993s

smoothSolver:  Solving for Ux, Initial residual = 0.00428441, Final residual = 0.000393474, No Iterations 4
smoothSolver:  Solving for Uy, Initial residual = 0.0191314, Final residual = 0.0012005, No Iterations 4
smoothSolver:  Solving for Uz, Initial residual = 0.024119, Final residual = 0.00231978, No Iterations 4
GAMG:  Solving for p, Initial residual = 0.00788334, Final residual = 0.000762228, No Iterations 2
time step continuity errors : sum local = 0.00456157, global = -0.000425158, cumulative = 0.00564264
smoothSolver:  Solving for omega, Initial residual = 0.000487267, Final residual = 1.58256e-05, No Iterations 2
smoothSolver:  Solving for k, Initial residual = 0.00843247, Final residual = 0.000405032, No Iterations 2
ExecutionTime = 827.728 s  ClockTime = 828 s

forceCoeffs forces write:
    Cm    = -0.334025
    Cd    = 1.4415
    Cl    = -0.239561
    Cl(f) = -0.453805
    Cl(r) = 0.214244

Time = 994s

smoothSolver:  Solving for Ux, Initial residual = 0.00428467, Final residual = 0.000381064, No Iterations 4
smoothSolver:  Solving for Uy, Initial residual = 0.0192377, Final residual = 0.00120903, No Iterations 4
smoothSolver:  Solving for Uz, Initial residual = 0.0239207, Final residual = 0.00227381, No Iterations 4
GAMG:  Solving for p, Initial residual = 0.00787238, Final residual = 0.000337881, No Iterations 3
time step continuity errors : sum local = 0.00200802, global = 3.00996e-05, cumulative = 0.00567274
smoothSolver:  Solving for omega, Initial residual = 0.000483547, Final residual = 1.54373e-05, No Iterations 2
smoothSolver:  Solving for k, Initial residual = 0.00839649, Final residual = 0.000402564, No Iterations 2
ExecutionTime = 828.647 s  ClockTime = 829 s

forceCoeffs forces write:
    Cm    = -0.33201
    Cd    = 1.44658
    Cl    = -0.247119
    Cl(f) = -0.455569
    Cl(r) = 0.208451

Time = 995s

smoothSolver:  Solving for Ux, Initial residual = 0.00432715, Final residual = 0.000371753, No Iterations 4
smoothSolver:  Solving for Uy, Initial residual = 0.0198255, Final residual = 0.0012492, No Iterations 4
smoothSolver:  Solving for Uz, Initial residual = 0.0240664, Final residual = 0.00225391, No Iterations 4
GAMG:  Solving for p, Initial residual = 0.00794212, Final residual = 0.00073242, No Iterations 2
time step continuity errors : sum local = 0.00421842, global = -1.7251e-05, cumulative = 0.00565549
smoothSolver:  Solving for omega, Initial residual = 0.000482509, Final residual = 1.51377e-05, No Iterations 2
smoothSolver:  Solving for k, Initial residual = 0.00839502, Final residual = 0.000400534, No Iterations 2
ExecutionTime = 829.49 s  ClockTime = 829 s

forceCoeffs forces write:
    Cm    = -0.330846
    Cd    = 1.44838
    Cl    = -0.251125
    Cl(f) = -0.456409
    Cl(r) = 0.205284

Time = 996s

smoothSolver:  Solving for Ux, Initial residual = 0.00420741, Final residual = 0.000365317, No Iterations 4
smoothSolver:  Solving for Uy, Initial residual = 0.019622, Final residual = 0.00124418, No Iterations 4
smoothSolver:  Solving for Uz, Initial residual = 0.0230658, Final residual = 0.00219673, No Iterations 4
GAMG:  Solving for p, Initial residual = 0.00816046, Final residual = 0.000377488, No Iterations 3
time step continuity errors : sum local = 0.00217207, global = -3.4012e-05, cumulative = 0.00562148
smoothSolver:  Solving for omega, Initial residual = 0.000486985, Final residual = 1.51068e-05, No Iterations 2
smoothSolver:  Solving for k, Initial residual = 0.00842677, Final residual = 0.000398371, No Iterations 2
ExecutionTime = 830.418 s  ClockTime = 830 s

forceCoeffs forces write:
    Cm    = -0.329225
    Cd    = 1.45273
    Cl    = -0.257717
    Cl(f) = -0.458083
    Cl(r) = 0.200366

Time = 997s

smoothSolver:  Solving for Ux, Initial residual = 0.00421248, Final residual = 0.000362958, No Iterations 4
smoothSolver:  Solving for Uy, Initial residual = 0.0205619, Final residual = 0.00129894, No Iterations 4
smoothSolver:  Solving for Uz, Initial residual = 0.0237853, Final residual = 0.00224939, No Iterations 4
GAMG:  Solving for p, Initial residual = 0.00788352, Final residual = 0.00034944, No Iterations 3
time step continuity errors : sum local = 0.00200877, global = -0.000155644, cumulative = 0.00546584
smoothSolver:  Solving for omega, Initial residual = 0.000494594, Final residual = 1.5422e-05, No Iterations 2
smoothSolver:  Solving for k, Initial residual = 0.00849907, Final residual = 0.000395687, No Iterations 2
ExecutionTime = 831.273 s  ClockTime = 831 s

forceCoeffs forces write:
    Cm    = -0.328142
    Cd    = 1.45629
    Cl    = -0.263327
    Cl(f) = -0.459806
    Cl(r) = 0.196479

Time = 998s

smoothSolver:  Solving for Ux, Initial residual = 0.00415793, Final residual = 0.000366288, No Iterations 4
smoothSolver:  Solving for Uy, Initial residual = 0.0205386, Final residual = 0.00132248, No Iterations 4
smoothSolver:  Solving for Uz, Initial residual = 0.0237663, Final residual = 0.00230442, No Iterations 4
GAMG:  Solving for p, Initial residual = 0.00793907, Final residual = 0.000336599, No Iterations 3
time step continuity errors : sum local = 0.00193085, global = -0.000123608, cumulative = 0.00534223
smoothSolver:  Solving for omega, Initial residual = 0.000503637, Final residual = 1.5945e-05, No Iterations 2
smoothSolver:  Solving for k, Initial residual = 0.00857949, Final residual = 0.000394072, No Iterations 2
ExecutionTime = 832.125 s  ClockTime = 832 s

forceCoeffs forces write:
    Cm    = -0.327479
    Cd    = 1.4601
    Cl    = -0.268286
    Cl(f) = -0.461622
    Cl(r) = 0.193336

Time = 999s

smoothSolver:  Solving for Ux, Initial residual = 0.00413189, Final residual = 0.000373562, No Iterations 4
smoothSolver:  Solving for Uy, Initial residual = 0.0205527, Final residual = 0.00134634, No Iterations 4
smoothSolver:  Solving for Uz, Initial residual = 0.023948, Final residual = 0.00237959, No Iterations 4
GAMG:  Solving for p, Initial residual = 0.00810311, Final residual = 0.000332488, No Iterations 3
time step continuity errors : sum local = 0.0018833, global = -0.000121485, cumulative = 0.00522074
smoothSolver:  Solving for omega, Initial residual = 0.000511346, Final residual = 1.64856e-05, No Iterations 2
smoothSolver:  Solving for k, Initial residual = 0.00865193, Final residual = 0.000394989, No Iterations 2
ExecutionTime = 833.04 s  ClockTime = 833 s

forceCoeffs forces write:
    Cm    = -0.327327
    Cd    = 1.46293
    Cl    = -0.271665
    Cl(f) = -0.46316
    Cl(r) = 0.191495

Time = 1000s

smoothSolver:  Solving for Ux, Initial residual = 0.0041033, Final residual = 0.000382343, No Iterations 4
smoothSolver:  Solving for Uy, Initial residual = 0.0203579, Final residual = 0.0013533, No Iterations 4
smoothSolver:  Solving for Uz, Initial residual = 0.0241551, Final residual = 0.00151559, No Iterations 5
GAMG:  Solving for p, Initial residual = 0.00823085, Final residual = 0.000814591, No Iterations 2
time step continuity errors : sum local = 0.00456781, global = -0.000332639, cumulative = 0.0048881
smoothSolver:  Solving for omega, Initial residual = 0.000515585, Final residual = 1.69082e-05, No Iterations 2
smoothSolver:  Solving for k, Initial residual = 0.00869055, Final residual = 0.000398826, No Iterations 2
ExecutionTime = 834.307 s  ClockTime = 834 s

forceCoeffs forces write:
    Cm    = -0.327447
    Cd    = 1.46446
    Cl    = -0.273127
    Cl(f) = -0.46401
    Cl(r) = 0.190883

End

Finalising parallel run
